[General]
cmdenv-express-mode = true
cmdenv-autoflush = true


ned-path = .;D:/licenta rebreanu/omnetpp/src


# Scenario / Network


network = RebreanuScenario
sim-time-limit = 3600s


# TraCI / SUMO Manager

*.manager.updateInterval = 0.1s
*.manager.host = "localhost"
*.manager.port = 9999
*.manager.autoShutdown = true
*.manager.margin = 25
*.manager.launchConfig = xmldoc("rebreanu.launchd.xml")



#  Playground

*.playgroundSizeX = 5000m
*.playgroundSizeY = 2000m
*.playgroundSizeZ = 50m


#  Connection Manager

*.connectionManager.sendDirect = false
*.connectionManager.maxInterfDist = 150m
*.connectionManager.drawMaxIntfDist = true


# Vehicule - aplicatie

*.node[*].applType = "RebreanuApp"
*.node[*].appl.debug = false
*.node[*].appl.headerLength = 80 bit

*.node[*].appl.sendBeacons = false
*.node[*].appl.dataOnSch = false

*.node[*].appl.beaconInterval = 0.2s
*.node[*].appl.beaconPriority = 3
*.node[*].appl.dataPriority = 2

*.node[*].veinsmobility.x = 0
*.node[*].veinsmobility.y = 0
*.node[*].veinsmobility.z = 0


# RSU - aplicatie


*.rsu[*].applType = "RebreanuRSU"
*.rsu[*].appl.debug = false
*.rsu[*].appl.headerLength = 80 bit

*.rsu[*].appl.sendBeacons = false
*.rsu[*].appl.beaconInterval = 1s


#  NIC / PHY CONFIG


*.**.nic.mac1609_4.useServiceChannel = false
*.**.nic.mac1609_4.txPower = 20mW
*.**.nic.mac1609_4.bitrate = 6Mbps

*.**.nic.phy80211p.sensitivity = -110dBm
*.**.nic.phy80211p.minPowerLevel = -110dBm

*.**.nic.phy80211p.useThermalNoise = false
*.**.nic.phy80211p.useNoiseFloor = true
*.**.nic.phy80211p.noiseFloor = -98dBm

*.**.nic.phy80211p.usePropagationDelay = true

*.**.nic.phy80211p.decider = xmldoc("config.xml")
*.**.nic.phy80211p.analogueModels = xmldoc("config.xml")

*.**.nic.phy80211p.antenna = xmldoc("antenna.xml", "/root/Antenna[@id='monopole']")

*.node[*].nic.phy80211p.antennaOffsetY = 0m
*.node[*].nic.phy80211p.antennaOffsetZ = 1.895m



# RSU pozitii

*.rsu[0].mobility.x = 379
*.rsu[0].mobility.y = 960
*.rsu[0].mobility.z = 3

*.rsu[1].mobility.x = 534
*.rsu[1].mobility.y = 948
*.rsu[1].mobility.z = 3

*.rsu[2].mobility.x = 828
*.rsu[2].mobility.y = 917
*.rsu[2].mobility.z = 3

*.rsu[3].mobility.x = 1311
*.rsu[3].mobility.y = 729
*.rsu[3].mobility.z = 3

*.rsu[4].mobility.x = 1426
*.rsu[4].mobility.y = 676
*.rsu[4].mobility.z = 3

*.rsu[5].mobility.x = 1753
*.rsu[5].mobility.y = 526
*.rsu[5].mobility.z = 3

*.rsu[6].mobility.x = 1946
*.rsu[6].mobility.y = 443
*.rsu[6].mobility.z = 3

*.rsu[7].mobility.x = 2315
*.rsu[7].mobility.y = 288
*.rsu[7].mobility.z = 3

*.rsu[8].mobility.x = 2509
*.rsu[8].mobility.y = 305
*.rsu[8].mobility.z = 3

*.rsu[9].mobility.x = 2814
*.rsu[9].mobility.y = 360
*.rsu[9].mobility.z = 3

*.rsu[10].mobility.x = 3271
*.rsu[10].mobility.y = 436
*.rsu[10].mobility.z = 3

# RSU configurari

*.rsu[0].appl.trafficLightId = "cluster_264626882_264626883_6257455541_6257455563_6257455685_6257455686_6257455689_6257455690"
*.rsu[0].appl.mainGreenPhase = 0
*.rsu[0].appl.secondaryGreenPhase = 3
*.rsu[0].appl.initialMainGreenDuration = 55
*.rsu[0].appl.initialSecondaryGreenDuration = 55
*.rsu[0].appl.isStable = false
*.rsu[0].appl.dynamicControlEnabled = false

*.rsu[1].appl.trafficLightId = "cluster_254484113_263149242_6257455542_6257455565_6257455701_6257455702_6257455706"
*.rsu[1].appl.mainGreenPhase = 0
*.rsu[1].appl.secondaryGreenPhase = 3
*.rsu[1].appl.initialMainGreenDuration = 55
*.rsu[1].appl.initialSecondaryGreenDuration = 55
*.rsu[1].appl.isStable = false
*.rsu[1].appl.dynamicControlEnabled = false

*.rsu[2].appl.trafficLightId = "cluster_2060373037_2060373048_243753994_263149240_6257455544_6257455551_6257455578_6257455579"
*.rsu[2].appl.mainGreenPhase = 0
*.rsu[2].appl.secondaryGreenPhase = 5
*.rsu[2].appl.initialMainGreenDuration = 55
*.rsu[2].appl.initialSecondaryGreenDuration = 55
*.rsu[2].appl.isStable = false
*.rsu[2].appl.dynamicControlEnabled = false

*.rsu[3].appl.trafficLightId = "cluster_11620196830_11620196832_11620196833_2133604619_2133605961_2133605962_277706881_277706882_7939397120"
*.rsu[3].appl.mainGreenPhase = 0
*.rsu[3].appl.secondaryGreenPhase = 3
*.rsu[3].appl.initialMainGreenDuration = 55
*.rsu[3].appl.initialSecondaryGreenDuration = 55
*.rsu[3].appl.isStable = false
*.rsu[3].appl.dynamicControlEnabled = false

*.rsu[4].appl.trafficLightId = "cluster_10729350301_10729350304_11620196835_11620196838_11620196841_11620196844_11620196846_243753992_263149237_7939397123_7939397124"
*.rsu[4].appl.mainGreenPhase = 0
*.rsu[4].appl.secondaryGreenPhase = 5
*.rsu[4].appl.initialMainGreenDuration = 55
*.rsu[4].appl.initialSecondaryGreenDuration = 55
*.rsu[4].appl.isStable = false
*.rsu[4].appl.dynamicControlEnabled = false

*.rsu[5].appl.trafficLightId = "cluster_10729364515_10729364516_11620196848_11620196853_11620196854_11620196855_11620196858_263149236_29119690_29119691_7939397127_7939397128"
*.rsu[5].appl.mainGreenPhase = 0
*.rsu[5].appl.secondaryGreenPhase = 3
*.rsu[5].appl.initialMainGreenDuration = 55
*.rsu[5].appl.initialSecondaryGreenDuration = 55
*.rsu[5].appl.isStable = false
*.rsu[5].appl.dynamicControlEnabled = false

*.rsu[6].appl.trafficLightId = "cluster_11620196863_11620196864_11620196865_11620196867_11620211988_13031909146_13031909149_25478354_263149235_6959624140_6959624143"
*.rsu[6].appl.mainGreenPhase = 0
*.rsu[6].appl.secondaryGreenPhase = 3
*.rsu[6].appl.initialMainGreenDuration = 55
*.rsu[6].appl.initialSecondaryGreenDuration = 55
*.rsu[6].appl.isStable = false
*.rsu[6].appl.dynamicControlEnabled = false

*.rsu[7].appl.trafficLightId = "cluster_13309083466_2105405166_2105405178_2319490937_29119260_3815408390_4271954415_4416320865_4416320868_4443823116_4462010368_5614127687_6449090080_6449090190_6959616673"
*.rsu[7].appl.mainGreenPhase = 0
*.rsu[7].appl.secondaryGreenPhase = 5
*.rsu[7].appl.initialMainGreenDuration = 55
*.rsu[7].appl.initialSecondaryGreenDuration = 55
*.rsu[7].appl.isStable = false
*.rsu[7].appl.dynamicControlEnabled = false

*.rsu[8].appl.trafficLightId = "cluster_2319490934_25478346_2549391513_25530087_262632090_3581040750_4271981212_4271981213_4271981214_6428435103_6428488571_6428488573_6428488575_6431276598"
*.rsu[8].appl.mainGreenPhase = 0
*.rsu[8].appl.secondaryGreenPhase = 5
*.rsu[8].appl.initialMainGreenDuration = 55
*.rsu[8].appl.initialSecondaryGreenDuration = 55
*.rsu[8].appl.isStable = true
*.rsu[8].appl.dynamicControlEnabled = false

*.rsu[9].appl.trafficLightId = "cluster_2319707712_2395620016_265072738_6431276600_6431276601_6431276603"
*.rsu[9].appl.mainGreenPhase = 0
*.rsu[9].appl.secondaryGreenPhase = 6
*.rsu[9].appl.initialMainGreenDuration = 55
*.rsu[9].appl.initialSecondaryGreenDuration = 55
*.rsu[9].appl.isStable = false
*.rsu[9].appl.dynamicControlEnabled = false

*.rsu[10].appl.trafficLightId = "cluster_1675011362_1942452166_2337829560_262639470"
*.rsu[10].appl.mainGreenPhase = 0
*.rsu[10].appl.secondaryGreenPhase = 5
*.rsu[10].appl.initialMainGreenDuration = 55
*.rsu[10].appl.initialSecondaryGreenDuration = 55
*.rsu[10].appl.isStable = false
*.rsu[10].appl.dynamicControlEnabled = false


#            Statistici


**.scalar-recording = true
**.vector-recording = true

*.**.nic.phy80211p.**.vector-recording = false
*.**.nic.mac1609_4.**.vector-recording = false

*.node[*].veinsmobility.vector-recording = false
*.node[*].veinsmobility.scalar-recording = true
*.node[*].appl.scalar-recording = true
*.node[*].appl.vector-recording = false

*.rsu[*].appl.scalar-recording = true
*.rsu[*].appl.vector-recording = true


#    Visuals

*.annotations.draw = true


# repeat
repeat = 3
seed-set = ${repetition}
*.manager.seed = ${repetition}




# NOAPTE 

[Config Noapte_1_GreenWave]
description = "Trafic de noapte cu unda verde statica (fara control dinamic)"
*.manager.launchConfig = xmldoc("scenariu_noapte_dinamic.launchd.xml")
*.rsu[*].appl.dynamicControlEnabled = false
*.rsu[*].appl.debugHeading          = false
*.rsu[*].appl.stopSpeedThreshold    = 3.0
output-scalar-file = ${resultdir}/${configname}-${iterationvars}-${repetition}.sca
output-vector-file = ${resultdir}/${configname}-${iterationvars}-${repetition}.vec

[Config Noapte_2_Dinamic]
description = "Trafic de noapte cu control dinamic adaptiv (controller se abtine la cerere mica)"
*.manager.launchConfig = xmldoc("scenariu_noapte_dinamic.launchd.xml")
*.rsu[*].appl.dynamicControlEnabled = true
*.rsu[*].appl.debugHeading          = false
*.rsu[*].appl.highThreshold         = 5
*.rsu[*].appl.lowThreshold          = 2
*.rsu[*].appl.intervalCycles        = 5
*.rsu[*].appl.sampleCycles          = 3
*.rsu[*].appl.queueRange            = 150
*.rsu[*].appl.stopSpeedThreshold    = 3.0
output-scalar-file = ${resultdir}/${configname}-${iterationvars}-${repetition}.sca
output-vector-file = ${resultdir}/${configname}-${iterationvars}-${repetition}.vec


# NORMAL 

[Config Normal_1_NoSync]
description = "Trafic normal fara sincronizare (semafoare independente, fara offset)"
*.manager.launchConfig = xmldoc("scenariu_normal_nosync.launchd.xml")
*.rsu[*].appl.dynamicControlEnabled = false
*.rsu[*].appl.debugHeading          = false
*.rsu[*].appl.stopSpeedThreshold    = 3.0
output-scalar-file = ${resultdir}/${configname}-${iterationvars}-${repetition}.sca
output-vector-file = ${resultdir}/${configname}-${iterationvars}-${repetition}.vec

[Config Normal_2_GreenWave]
description = "Trafic normal cu unda verde statica (offset sincronizat)"
*.manager.launchConfig = xmldoc("scenariu_normal_gw.launchd.xml")
*.rsu[*].appl.dynamicControlEnabled = false
*.rsu[*].appl.debugHeading          = false
*.rsu[*].appl.stopSpeedThreshold    = 3.0
output-scalar-file = ${resultdir}/${configname}-${iterationvars}-${repetition}.sca
output-vector-file = ${resultdir}/${configname}-${iterationvars}-${repetition}.vec

[Config Normal_3_Dinamic]
description = "Trafic normal cu control dinamic adaptiv (zona sweet-spot X=0.48)"
*.manager.launchConfig = xmldoc("scenariu_normal_gw.launchd.xml")
*.rsu[*].appl.dynamicControlEnabled = true
*.rsu[*].appl.debugHeading          = false
*.rsu[*].appl.highThreshold         = 10
*.rsu[*].appl.lowThreshold          = 4
*.rsu[*].appl.intervalCycles        = 5
*.rsu[*].appl.sampleCycles          = 3
*.rsu[*].appl.queueRange            = 150
*.rsu[*].appl.stopSpeedThreshold    = 3.0
output-scalar-file = ${resultdir}/${configname}-${iterationvars}-${repetition}.sca
output-vector-file = ${resultdir}/${configname}-${iterationvars}-${repetition}.vec


# VARF 

[Config Varf_1_GreenWave]
description = "Trafic de varf cu unda verde statica"
*.manager.launchConfig = xmldoc("scenariu_varf_gw.launchd.xml")
*.rsu[*].appl.dynamicControlEnabled = false
*.rsu[*].appl.debugHeading          = false
*.rsu[*].appl.stopSpeedThreshold    = 3.0
output-scalar-file = ${resultdir}/${configname}-${iterationvars}-${repetition}.sca
output-vector-file = ${resultdir}/${configname}-${iterationvars}-${repetition}.vec

[Config Varf_2_Dinamic]
description = "Trafic de varf cu control dinamic adaptiv (zona sweet-spot X=0.48)"
*.manager.launchConfig = xmldoc("scenariu_varf_gw.launchd.xml")
*.rsu[*].appl.dynamicControlEnabled = true
*.rsu[*].appl.debugHeading          = false
*.rsu[*].appl.highThreshold         = 10
*.rsu[*].appl.lowThreshold          = 4
*.rsu[*].appl.intervalCycles        = 5
*.rsu[*].appl.sampleCycles          = 3
*.rsu[*].appl.queueRange            = 150
*.rsu[*].appl.stopSpeedThreshold    = 3.0
output-scalar-file = ${resultdir}/${configname}-${iterationvars}-${repetition}.sca
output-vector-file = ${resultdir}/${configname}-${iterationvars}-${repetition}.vec

[Config Varf_4_NoSync]
description = "Trafic de varf fara sincronizare (semafoare independente, fara offset)"
*.manager.launchConfig = xmldoc("scenariu_varf_nosync.launchd.xml")
*.rsu[*].appl.dynamicControlEnabled = false
*.rsu[*].appl.debugHeading          = false
*.rsu[*].appl.stopSpeedThreshold    = 3.0
output-scalar-file = ${resultdir}/${configname}-${iterationvars}-${repetition}.sca
output-vector-file = ${resultdir}/${configname}-${iterationvars}-${repetition}.vec



# AGLOMERAT

[Config Aglomerat_1_GreenWave]
description = "Trafic aglomerat cu unda verde statica (X=0.80, aproape de saturatie)"
*.manager.launchConfig = xmldoc("scenariu_aglomerat_gw.launchd.xml")
*.rsu[*].appl.dynamicControlEnabled = false
*.rsu[*].appl.debugHeading          = false
*.rsu[*].appl.stopSpeedThreshold    = 3.0
output-scalar-file = ${resultdir}/${configname}-${iterationvars}-${repetition}.sca
output-vector-file = ${resultdir}/${configname}-${iterationvars}-${repetition}.vec

[Config Aglomerat_2_Dinamic]
description = "Trafic aglomerat cu control dinamic adaptiv (limite split-adaptiv la suprasaturatie)"
*.manager.launchConfig = xmldoc("scenariu_aglomerat_gw.launchd.xml")
*.rsu[*].appl.dynamicControlEnabled = true
*.rsu[*].appl.debugHeading          = false
*.rsu[*].appl.highThreshold         = 12
*.rsu[*].appl.lowThreshold          = 5
*.rsu[*].appl.intervalCycles        = 5
*.rsu[*].appl.sampleCycles          = 3
*.rsu[*].appl.queueRange            = 150
*.rsu[*].appl.stopSpeedThreshold    = 3.0
output-scalar-file = ${resultdir}/${configname}-${iterationvars}-${repetition}.sca
output-vector-file = ${resultdir}/${configname}-${iterationvars}-${repetition}.vec

[Config Aglomerat_4_NoSync]
description = "Trafic aglomerat fara sincronizare (semafoare independente, fara offset)"
*.manager.launchConfig = xmldoc("scenariu_aglomerat_nosync.launchd.xml")
*.rsu[*].appl.dynamicControlEnabled = false
*.rsu[*].appl.debugHeading          = false
*.rsu[*].appl.stopSpeedThreshold    = 3.0
**.vector-recording = false
output-scalar-file = ${resultdir}/${configname}-${iterationvars}-${repetition}.sca
output-vector-file = ${resultdir}/${configname}-${iterationvars}-${repetition}.vec


# VARF — control dinamic pe sensing V2I 

[Config Varf_3_Dinamic_V2I]
description = "Trafic de varf cu control dinamic pe sensing V2I/BSM (comparatie cu detector)"
*.manager.launchConfig = xmldoc("scenariu_varf_gw.launchd.xml")
*.rsu[*].appl.dynamicControlEnabled = true
*.rsu[*].appl.useTraciQueue         = false
*.rsu[*].appl.debugHeading          = false
*.rsu[*].appl.highThreshold         = 10
*.rsu[*].appl.lowThreshold          = 4
*.rsu[*].appl.intervalCycles        = 5
*.rsu[*].appl.sampleCycles          = 3
*.rsu[*].appl.queueRange            = 150
*.rsu[*].appl.stopSpeedThreshold    = 3.0
output-scalar-file = ${resultdir}/${configname}-${iterationvars}-${repetition}.sca
output-vector-file = ${resultdir}/${configname}-${iterationvars}-${repetition}.vec


# AGLOMERAT — control dinamic pe sensing V2I 

[Config Aglomerat_3_Dinamic_V2I]
description = "Trafic aglomerat cu control dinamic pe sensing V2I/BSM (comparatie cu detector)"
*.manager.launchConfig = xmldoc("scenariu_aglomerat_gw.launchd.xml")
*.rsu[*].appl.dynamicControlEnabled = true
*.rsu[*].appl.useTraciQueue         = false
*.rsu[*].appl.debugHeading          = false
*.rsu[*].appl.highThreshold         = 12
*.rsu[*].appl.lowThreshold          = 5
*.rsu[*].appl.intervalCycles        = 5
*.rsu[*].appl.sampleCycles          = 3
*.rsu[*].appl.queueRange            = 150
*.rsu[*].appl.stopSpeedThreshold    = 3.0
output-scalar-file = ${resultdir}/${configname}-${iterationvars}-${repetition}.sca
output-vector-file = ${resultdir}/${configname}-${iterationvars}-${repetition}.vec



# DEMO
[Config DEMO_Noapte_1_GreenWave]
description = "DEMO"
*.manager.launchConfig = xmldoc("scenariu_noapte_dinamic.launchd.xml")
repeat = 1
*.rsu[*].appl.dynamicControlEnabled = false
*.rsu[*].appl.debugHeading          = false
*.rsu[*].appl.stopSpeedThreshold    = 3.0
output-scalar-file = ${resultdir}/${configname}-${iterationvars}-${repetition}.sca
output-vector-file = ${resultdir}/${configname}-${iterationvars}-${repetition}.vec


