<?xml version="1.0" encoding="UTF-8"?>

<!-- generated on 05/18/26 13:38:54 by Eclipse SUMO netedit Version 1.8.0
<configuration xmlns:xsi="http://www.w3.org/2001/XMLSchema-instance" xsi:noNamespaceSchemaLocation="http://sumo.dlr.de/xsd/netconvertConfiguration.xsd">

    <input>
        <sumo-net-file value="D:\licenta%20rebreanu\map\rebreanu__clean_gw_full_cycle.net.xml"/>
    </input>

    <output>
        <output-file value="D:\licenta%20rebreanu\map\rebreanu__clean_gw_full_cycle.net.xml"/>
    </output>

    <processing>
        <geometry.min-radius.fix.railways value="false"/>
        <geometry.max-grade.fix value="false"/>
        <offset.disable-normalization value="true"/>
        <lefthand value="false"/>
    </processing>

    <junctions>
        <no-turnarounds value="true"/>
        <junctions.corner-detail value="5"/>
        <junctions.limit-turn-speed value="5.5"/>
        <rectangular-lane-cut value="false"/>
    </junctions>

    <pedestrian>
        <walkingareas value="false"/>
    </pedestrian>

    <netedit>
        <route-files value="D:\licenta%20rebreanu\map\rebreanu.rou.xml"/>
    </netedit>

    <report>
        <aggregate-warnings value="5"/>
    </report>

</configuration>
-->

<routes xmlns:xsi="http://www.w3.org/2001/XMLSchema-instance" xsi:noNamespaceSchemaLocation="http://sumo.dlr.de/xsd/routes_file.xsd">
	<vTypeDistribution id="mix_soferi">
        <vType id="veh_passenger_fast" length="4.50" minGap="2.50" maxSpeed="13.89" vClass="passenger" accel="2.6" decel="4.5" sigma="0.3" tau="1.0" probability="0.5" color="yellow"/>
        <vType id="veh_passenger_slow" length="4.50" minGap="2.50" maxSpeed="13.89" vClass="passenger" accel="2.6" decel="4.5" sigma="0.6" tau="1.4" probability="0.5" color="orange"/>
    </vTypeDistribution>
    <route edges="718480869#1 718480869#5 668206007#1 668206012#1 668206012#3 667650416#0 24295843#1 24295843#3 24295843#6 1488763631#1 853236716#1 853236312#2 1451157146#0 4258951#0 686175600#0 686175599 686147774 762529584 427788064#0 427788064#5 232181246#0 232181246#1 232181246#4 1227522685" color="yellow" id="route_0"/>
    <route edges="1296701312 686147781 686175599 686147774 762529584 427788064#0 427788064#5 232181246#0 232181246#1 232181246#4 1227522685" color="yellow" id="route_1"/>
    <route edges="-667650414#1 -667650415#1 -667650418#0" color="yellow" id="route_10"/>
    <route edges="718480869#1 718480869#5 209203295#1" color="yellow" id="route_11"/>
    <route edges="1456003735#0 1456003735#1 209203295#1" color="yellow" id="route_12"/>
    <route edges="1456003735#0 1456003735#1 668206007#1 668206012#1 668206012#3 667650416#0 24295843#1 24295843#3 24295843#6 1488763631#1 853236716#1 853236312#2 1451157146#0 4258951#0 686175600#0 686175599 686147774 762529584 427788064#0 427788064#5 232181246#0 232181246#1 232181246#4 1227522685" color="yellow" id="route_13"/>
    <route edges="667726326#0 668206013#0 668206005#1 1418746711#0" color="yellow" id="route_14"/>
    <route edges="667726326#0 668206012#1 668206012#3 667650416#0 24295843#1 24295843#3 24295843#6 1488763631#1 853236716#1 853236312#2 1451157146#0 4258951#0 686175600#0 686175599 686147774 762529584 427788064#0 427788064#5 232181246#0 232181246#1 232181246#4 1227522685" color="yellow" id="route_15"/>
    <route edges="719125738 4326787#0 4326787#3 4326787#8 719124088#0 719124088#1 719124088#2-AddedOnRampEdge 719124088#2 686147767#0 691310807#1 427788065#0 719123252 1451157147#0 1160047539#1 444140952#2 444140952#3 1259505972#1 719121696#1 719121697#1 217633684#0 217633684#1 668206002#1 101622483#1" color="yellow" id="route_16"/>
    <route edges="718480869#1 718480869#5 668206007#1 668206012#1 -1493722244#1" color="yellow" id="route_17"/>
    <route edges="1493722244#0 668206012#3 667650416#0 24295843#1 24295843#3 24295843#6 1488763631#1 853236716#1 853236312#2 1451157146#0 4258951#0 686175600#0 686175599 686147774 762529584 427788064#0 427788064#5 232181246#0 232181246#1 232181246#4 1227522685" color="yellow" id="route_18"/>
    <route edges="718480869#1 718480869#5 668206007#1 668206012#1 668206012#3 23498425#0" color="yellow" id="route_19"/>
    <route edges="719125738 4326787#0 4326787#3 4326787#8 719124088#0 719124088#1 719124088#2-AddedOnRampEdge 719124088#2 686147767#0 691310807#1 427788065#0 719123252 1451157147#0 1160047539#1 444140952#2 444140952#3 1259505972#1 719121696#1 719121697#1 217633684#0 217633684#1 668206002#1 668206013#0 668206005#1 1418746711#0" color="yellow" id="route_2"/>
    <route edges="-23498425#2 667650416#0 24295843#1 24295843#3 24295843#6 1488763631#1 853236716#1 853236312#2 1451157146#0 4258951#0 686175600#0 686175599 686147774 762529584 427788064#0 427788064#5 232181246#0 232181246#1 232181246#4 1227522685" color="yellow" id="route_20"/>
    <route edges="718480869#1 718480869#5 668206007#1 668206012#1 668206012#3 667650416#0 -667650418#0" color="yellow" id="route_21"/>
    <route edges="718480869#1 718480869#5 668206007#1 668206012#1 668206012#3 667650416#0 667650415#1 667650414#0" color="yellow" id="route_22"/>
    <route edges="-667650414#1 -667650415#1 24295843#1 24295843#3 24295843#6 1488763631#1 853236716#1 853236312#2 1451157146#0 4258951#0 686175600#0 686175599 686147774 762529584 427788064#0 427788064#5 232181246#0 232181246#1 232181246#4 1227522685" color="yellow" id="route_23"/>
    <route edges="4270871 24295843#1 24295843#3 24295843#6 1488763631#1 853236716#1 853236312#2 1451157146#0 4258951#0 686175600#0 686175599 686147774 762529584 427788064#0 427788064#5 232181246#0 232181246#1 232181246#4 1227522685" color="yellow" id="route_24"/>
    <route edges="719125738 4326787#0 4326787#3 4326787#8 719124088#0 719124088#1 719124088#2-AddedOnRampEdge 719124088#2 686147767#0 691310807#1 427788065#0 719123252 1451157147#0 1160047539#1 444140952#2 444140952#3 1259505972#1 719121696#1 719121697#1 217633684#0 217633684#1 -667650418#0" color="yellow" id="route_25"/>
    <route edges="719125738 4326787#0 4326787#3 4326787#8 719124088#0 719124088#1 719124088#2-AddedOnRampEdge 719124088#2 686147767#0 691310807#1 427788065#0 719123252 1451157147#0 1160047539#1 444140952#2 444140952#3 1259505972#1 719121696#1 719121697#1 217633684#0 217633684#1 667650415#1 667650414#0" color="yellow" id="route_26"/>
    <route edges="4270871 668206002#1 668206013#0 668206005#1 1418746711#0" color="yellow" id="route_27"/>
    <route edges="-667650414#1 -667650415#1 668206002#1 668206013#0 668206005#1 1418746711#0" color="yellow" id="route_28"/>
    <route edges="719125738 4326787#0 4326787#3 4326787#8 719124088#0 719124088#1 719124088#2-AddedOnRampEdge 719124088#2 686147767#0 691310807#1 427788065#0 719123252 1451157147#0 1160047539#1 444140952#2 444140952#3 1259505972#1 719121696#1 719121697#1 217633684#0 -26540479#6 -26540479#1" color="yellow" id="route_29"/>
    <route edges="719125738 4326787#0 4326787#3 4326787#8 719124088#0 719124088#1 719124088#2-AddedOnRampEdge 719124088#2 686147767#0 691310807#1 427788065#0 1498005956 -1296701312" color="yellow" id="route_3"/>
    <route edges="26540479#2 217633684#1 668206002#1 668206013#0 668206005#1 1418746711#0" color="yellow" id="route_30"/>
    <route edges="222663291#0 24295843#3 24295843#6 1488763631#1 853236716#1 853236312#2 1451157146#0 4258951#0 686175600#0 686175599 686147774 762529584 427788064#0 427788064#5 232181246#0 232181246#1 232181246#4 1227522685" color="yellow" id="route_31"/>
    <route edges="719125738 4326787#0 4326787#3 4326787#8 719124088#0 719124088#1 719124088#2-AddedOnRampEdge 719124088#2 686147767#0 691310807#1 427788065#0 719123252 1451157147#0 1160047539#1 444140952#2 444140952#3 1259505972#1 719121696#1 719121697#1 217633683#0 217633683#4" color="yellow" id="route_32"/>
    <route edges="218106137#1 719121697#1 217633684#0 217633684#1 668206002#1 668206013#0 668206005#1 1418746711#0" color="yellow" id="route_33"/>
    <route edges="218106137#0 218106137#1 24295843#6 1488763631#1 853236716#1 853236312#2 1451157146#0 4258951#0 686175600#0 686175599 686147774 762529584 427788064#0 427788064#5 232181246#0 232181246#1 232181246#4 1227522685" color="yellow" id="route_34"/>
    <route edges="218106137#1 25415677#1" color="yellow" id="route_35"/>
    <route edges="718480869#1 718480869#5 668206007#1 668206012#1 668206012#3 667650416#0 24295843#1 24295843#3 24295843#6 23618056#1 23618056#6" color="yellow" id="route_36"/>
    <route edges="25494490#0 25494490#1 719121696#1 719121697#1 217633684#0 217633684#1 668206002#1 668206013#0 668206005#1 1418746711#0" color="yellow" id="route_37"/>
    <route edges="25494490#1 1488763631#1 853236716#1 853236312#2 1451157146#0 4258951#0 686175600#0 686175599 686147774 762529584 427788064#0 427788064#5 232181246#0 232181246#1 232181246#4" color="yellow" id="route_38"/>
    <route edges="719125738 4326787#0 4326787#3 4326787#8 719124088#0 719124088#1 719124088#2-AddedOnRampEdge 719124088#2 686147767#0 691310807#1 427788065#0 719123252 1451157147#0 1160047539#1 444140952#2 444140952#3 1259505972#1 23618056#1 23618056#6" color="yellow" id="route_39"/>
    <route edges="964039143 442604333#0 442604333#1 224940877#0 224940877#1 224940878" color="yellow" id="route_4"/>
    <route edges="718480869#1 718480869#5 668206007#1 668206012#1 668206012#3 667650416#0 24295843#1 24295843#3 24295843#6 1488763631#1 4929599#2 446626568" color="yellow" id="route_40"/>
    <route edges="4929599#2 204273171#8 25494490#1 1488763631#1 853236716#1 853236312#2 1451157146#0 4258951#0 686175600#0 686175599 686147774 762529584 427788064#0 427788064#5 232181246#0 232181246#1 232181246#4 1227522685" color="yellow" id="route_41"/>
    <route edges="-4929599#3 853236716#1 853236312#2 1451157146#0 4258951#0 686175600#0 686175599 686147774 762529584 427788064#0 427788064#5 232181246#0 232181246#1 232181246#4 1227522685" color="yellow" id="route_42"/>
    <route edges="420549780#0 4929599#2 446626568" color="yellow" id="route_43"/>
    <route edges="-4929599#3 1259505972#1 719121696#1 719121697#1 217633684#0 217633684#1 668206002#1 668206013#0 668206005#1 1418746711#0" color="yellow" id="route_44"/>
    <route edges="420549780#0 853236716#1 853236312#2 1451157146#0 4258951#0 686175600#0 686175599 686147774 762529584 427788064#0 427788064#5 232181246#0 232181246#1 232181246#4 1227522685" color="yellow" id="route_45"/>
    <route edges="420549780#0 1259505972#1 719121696#1 719121697#1 217633684#0 217633684#1 668206002#1 668206013#0 668206005#1 1418746711#0" color="yellow" id="route_46"/>
    <route edges="31958016#0 444140952#3 1259505972#1 719121696#1 719121697#1 217633684#0 217633684#1 668206002#1 668206013#0 668206005#1 1418746711#0" color="yellow" id="route_47"/>
    <route edges="718480869#1 718480869#5 668206007#1 668206012#1 668206012#3 667650416#0 24295843#1 24295843#3 24295843#6 1488763631#1 853236716#1 -1083300495#1" color="yellow" id="route_48"/>
    <route edges="1083300495#0 853236312#2 1451157146#0 4258951#0 686175600#0 686175599 686147774 762529584 427788064#0 427788064#5 232181246#0 232181246#1 232181246#4 1227522685" color="yellow" id="route_49"/>
    <route edges="-224940878 751682987 224940876#0 224940876#1 237646015#0 237646015#1 -964039142" color="yellow" id="route_5"/>
    <route edges="719125738 4326787#0 4326787#3 4326787#8 719124088#0 719124088#1 719124088#2-AddedOnRampEdge 719124088#2 686147767#0 691310807#1 427788065#0 719123252 1451157147#0 1160047539#1 223891097#1" color="yellow" id="route_50"/>
    <route edges="1083300495#0 223891097#1" color="yellow" id="route_51"/>
    <route edges="1083300495#0 444140952#2 444140952#3 1259505972#1 719121696#1 719121697#1 217633684#0 217633684#1 668206002#1 668206013#0 668206005#1 1418746711#0" color="yellow" id="route_52"/>
    <route edges="718480869#1 718480869#5 668206007#1 668206012#1 668206012#3 667650416#0 24295843#1 24295843#3 24295843#6 1488763631#1 853236716#1 853236312#2 1451157146#0 1059895604" color="yellow" id="route_53"/>
    <route edges="-1059895604 4258951#0 686175600#0 686175599 686147774 762529584 427788064#0 427788064#5 232181246#0 232181246#1 232181246#4 1227522685" color="yellow" id="route_54"/>
    <route edges="719125738 4326787#0 4326787#3 4326787#8 719124088#0 719124088#1 719124088#2-AddedOnRampEdge 719124088#2 686147767#0 691310807#1 427788065#0 719123252 1451157147#0 1059895604" color="yellow" id="route_55"/>
    <route edges="719125738 4326787#0 4326787#3 4326787#8 719124088#0 719124088#1 719124088#2-AddedOnRampEdge 719124088#2 686147767#0 691310807#1 427788065#0 719123252 1451157147#0 -697224146#2" color="yellow" id="route_56"/>
    <route edges="-1059895604 1160047539#1 444140952#2 444140952#3 1259505972#1 719121696#1 719121697#1 217633684#0 217633684#1 668206002#1 668206013#0 668206005#1 1418746711#0" color="yellow" id="route_57"/>
    <route edges="697224146#2 1160047539#1 444140952#2 444140952#3 1259505972#1 719121696#1 719121697#1 217633684#0 217633684#1 668206002#1 668206013#0 668206005#1 1418746711#0" color="yellow" id="route_58"/>
    <route edges="352338881#0 1498005956 -1296701312" color="yellow" id="route_59"/>
    <route edges="-1059895604 -697224146#2 -697224146#0" color="yellow" id="route_6"/>
    <route edges="352338881#0 686175599 686147774 762529584 427788064#0 427788064#5 232181246#0 232181246#1 232181246#4 1227522685" color="yellow" id="route_60"/>
    <route edges="1296701312 686147781 24257032#1" color="yellow" id="route_61"/>
    <route edges="1296701312 686147781 719123252 1451157147#0 1160047539#1 444140952#2 444140952#3 1259505972#1 719121696#1 719121697#1 217633684#0 217633684#1 668206002#1 668206013#0 668206005#1 1418746711#0" color="yellow" id="route_62"/>
    <route edges="718480869#1 718480869#5 668206007#1 668206012#1 668206012#3 667650416#0 24295843#1 24295843#3 24295843#6 1488763631#1 853236716#1 853236312#2 1451157146#0 4258951#0 686175600#0 24257032#1" color="yellow" id="route_63"/>
    <route edges="718480869#1 718480869#5 668206007#1 668206012#1 668206012#3 667650416#0 24295843#1 24295843#3 24295843#6 1488763631#1 853236716#1 853236312#2 1451157146#0 4258951#0 686175600#0 1498005956 -1296701312" color="yellow" id="route_64"/>
    <route edges="-217015268#7 -217015268#3 686147774 762529584 427788064#0 427788064#5 232181246#0 232181246#1 232181246#4 1227522685" color="yellow" id="route_65"/>
    <route edges="998009403#0 762529584 427788064#0 427788064#5 232181246#0 232181246#1 232181246#4 1227522685" color="yellow" id="route_66"/>
    <route edges="998009403#0 691310807#1 427788065#0 719123252 1451157147#0 1160047539#1 444140952#2 444140952#3 1259505972#1 719121696#1 719121697#1 217633684#0 217633684#1 668206002#1 668206013#0 668206005#1 1418746711#0" color="yellow" id="route_67"/>
    <route edges="718480869#1 718480869#5 668206007#1 668206012#1 668206012#3 667650416#0 24295843#1 24295843#3 24295843#6 1488763631#1 853236716#1 853236312#2 1451157146#0 4258951#0 686175600#0 686175599 686147774 -697856456#0" color="yellow" id="route_68"/>
    <route edges="719125738 4326787#0 4326787#3 4326787#8 719124088#0 719124088#1 719124088#2-AddedOnRampEdge 719124088#2 686147767#0 -697856456#0" color="yellow" id="route_69"/>
    <route edges="697224146#0 697224146#2 1059895604" color="yellow" id="route_7"/>
    <route edges="718480869#1 718480869#5 668206007#1 668206012#1 668206012#3 667650416#0 24295843#1 24295843#3 24295843#6 1488763631#1 853236716#1 853236312#2 1451157146#0 4258951#0 686175600#0 686175599 686147774 762529584 427788064#0 427788064#5 224940877#0 224940877#1 224940878" color="yellow" id="route_70"/>
    <route edges="718480869#1 718480869#5 668206007#1 668206012#1 668206012#3 667650416#0 24295843#1 24295843#3 24295843#6 1488763631#1 853236716#1 853236312#2 1451157146#0 4258951#0 686175600#0 686175599 686147774 762529584 427788064#0 427788064#5 237646015#0 237646015#1 -964039142" color="yellow" id="route_71"/>
    <route edges="719125738 4326787#0 4326787#3 4326787#8 237646015#0 237646015#1 -964039142" color="yellow" id="route_72"/>
    <route edges="719125738 4326787#0 4326787#3 4326787#8 224940877#0 224940877#1 224940878" color="yellow" id="route_73"/>
    <route edges="-224940878 751682987 224940876#0 224940876#1 232181246#0 232181246#1 232181246#4 1227522685" color="yellow" id="route_74"/>
    <route edges="-224940878 751682987 686276905#0 686276905#1 719124088#1 719124088#2-AddedOnRampEdge 719124088#2 686147767#0 691310807#1 427788065#0 719123252 1451157147#0 1160047539#1 444140952#2 444140952#3 1259505972#1 719121696#1 719121697#1 217633684#0 217633684#1 668206002#1 668206013#0 668206005#1 1418746711#0" color="yellow" id="route_75"/>
    <route edges="964039143 442604333#0 442604333#1 232181246#0 232181246#1 232181246#4 1227522685" color="yellow" id="route_76"/>
    <route edges="964039143 442604333#0 442604333#1 719124088#0 719124088#1 719124088#2-AddedOnRampEdge 719124088#2 686147767#0 691310807#1 427788065#0 719123252 1451157147#0 1160047539#1 444140952#2 444140952#3 1259505972#1 719121696#1 719121697#1 217633684#0 217633684#1 668206002#1 668206013#0 668206005#1 1418746711#0" color="yellow" id="route_77"/>
    <route edges="-216247380#3 232181246#4 1227522685" color="yellow" id="route_78"/>
    <route edges="718480869#1 718480869#5 668206007#1 668206012#1 668206012#3 667650416#0 24295843#1 24295843#3 24295843#6 1488763631#1 853236716#1 853236312#2 1451157146#0 4258951#0 686175600#0 686175599 686147774 762529584 427788064#0 427788064#5 232181246#0 232181246#1 216247380#0" color="yellow" id="route_79"/>
    <route edges="25494490#1 23618056#1" color="yellow" id="route_8"/>
    <route edges="-730691111#5 4326787#3 4326787#8 719124088#0 719124088#1 719124088#2-AddedOnRampEdge 719124088#2 686147767#0 691310807#1 427788065#0 719123252 1451157147#0 1160047539#1 444140952#2 444140952#3 1259505972#1 719121696#1 719121697#1 217633684#0 217633684#1 668206002#1 668206013#0 668206005#1 1418746711#0" color="yellow" id="route_80"/>
    <route edges="719125738 4326787#0 730691111#0" color="yellow" id="route_81"/>
    <route edges="4270871 667650415#1 667650414#0" color="yellow" id="route_9"/>
   <flow id="flow_WE" type="mix_soferi" begin="0.00" departLane="best" departSpeed="max" route="route_0" end="3600.00" vehsPerHour="100.00"/>
    <flow id="flow_EW" type="mix_soferi" begin="0.00" departLane="best" departSpeed="max" route="route_2" end="3600.00" vehsPerHour="100.00"/>
    <flow id="flow_aries_aem" type="mix_soferi" begin="0.00" departLane="best" departSpeed="max" route="route_1" end="3600.00" vehsPerHour="50.00"/>
    <flow id="flow_aem_aries" type="mix_soferi" begin="0.00" departLane="best" departSpeed="max" route="route_3" end="3600.00" vehsPerHour="50.00"/>
    <flow id="flow_sudului_ns" type="mix_soferi" begin="0.00" departLane="best" departSpeed="max" route="route_4" end="3600.00" vehsPerHour="50.00"/>
    <flow id="flow_sudului_sn" type="mix_soferi" begin="0.00" departLane="best" departSpeed="max" route="route_5" end="3600.00" vehsPerHour="50.00"/>
    <flow id="flow_girocului_ns" type="mix_soferi" begin="0.00" departLane="best" departSpeed="max" route="route_6" end="3600.00" vehsPerHour="50.00"/>
    <flow id="flow_girocului_sn" type="mix_soferi" begin="0.00" departLane="best" departSpeed="max" route="route_7" end="3600.00" vehsPerHour="50.00"/>
    <flow id="flow_drubeta_sn" type="mix_soferi" begin="0.00" departLane="best" departSpeed="max" route="route_8" end="3600.00" vehsPerHour="50.00"/>
    <flow id="flow_brancoveanu_ns" type="mix_soferi" begin="0.00" departLane="best" departSpeed="max" route="route_9" end="3600.00" vehsPerHour="50.00"/>
    <flow id="flow_brancoveanu_sn" type="mix_soferi" begin="0.00" departLane="best" departSpeed="max" route="route_10" end="3600.00" vehsPerHour="50.00"/>
   <flow id="flow_secundar_11" type="mix_soferi" begin="0.00" departLane="best" departSpeed="max" route="route_11" end="3600.00" vehsPerHour="5.00"/>
    <flow id="flow_secundar_12" type="mix_soferi" begin="0.00" departLane="best" departSpeed="max" route="route_12" end="3600.00" vehsPerHour="5.00"/>
    <flow id="flow_secundar_13" type="mix_soferi" begin="0.00" departLane="best" departSpeed="max" route="route_13" end="3600.00" vehsPerHour="5.00"/>
    <flow id="flow_secundar_14" type="mix_soferi" begin="0.00" departLane="best" departSpeed="max" route="route_14" end="3600.00" vehsPerHour="5.00"/>
    <flow id="flow_secundar_15" type="mix_soferi" begin="0.00" departLane="best" departSpeed="max" route="route_15" end="3600.00" vehsPerHour="5.00"/>
    <flow id="flow_secundar_16" type="mix_soferi" begin="0.00" departLane="best" departSpeed="max" route="route_16" end="3600.00" vehsPerHour="5.00"/>
    <flow id="flow_secundar_17" type="mix_soferi" begin="0.00" departLane="best" departSpeed="max" route="route_17" end="3600.00" vehsPerHour="5.00"/>
    <flow id="flow_secundar_18" type="mix_soferi" begin="0.00" departLane="best" departSpeed="max" route="route_18" end="3600.00" vehsPerHour="5.00"/>
    <flow id="flow_secundar_19" type="mix_soferi" begin="0.00" departLane="best" departSpeed="max" route="route_19" end="3600.00" vehsPerHour="5.00"/>
    <flow id="flow_secundar_20" type="mix_soferi" begin="0.00" departLane="best" departSpeed="max" route="route_20" end="3600.00" vehsPerHour="5.00"/>
    <flow id="flow_secundar_21" type="mix_soferi" begin="0.00" departLane="best" departSpeed="max" route="route_21" end="3600.00" vehsPerHour="5.00"/>
    <flow id="flow_secundar_22" type="mix_soferi" begin="0.00" departLane="best" departSpeed="max" route="route_22" end="3600.00" vehsPerHour="5.00"/>
    <flow id="flow_secundar_23" type="mix_soferi" begin="0.00" departLane="best" departSpeed="max" route="route_23" end="3600.00" vehsPerHour="5.00"/>
    <flow id="flow_secundar_24" type="mix_soferi" begin="0.00" departLane="best" departSpeed="max" route="route_24" end="3600.00" vehsPerHour="5.00"/>
    <flow id="flow_secundar_25" type="mix_soferi" begin="0.00" departLane="best" departSpeed="max" route="route_25" end="3600.00" vehsPerHour="5.00"/>
    <flow id="flow_secundar_26" type="mix_soferi" begin="0.00" departLane="best" departSpeed="max" route="route_26" end="3600.00" vehsPerHour="5.00"/>
    <flow id="flow_secundar_27" type="mix_soferi" begin="0.00" departLane="best" departSpeed="max" route="route_27" end="3600.00" vehsPerHour="5.00"/>
    <flow id="flow_secundar_28" type="mix_soferi" begin="0.00" departLane="best" departSpeed="max" route="route_28" end="3600.00" vehsPerHour="5.00"/>
    <flow id="flow_secundar_29" type="mix_soferi" begin="0.00" departLane="best" departSpeed="max" route="route_29" end="3600.00" vehsPerHour="5.00"/>
    <flow id="flow_secundar_30" type="mix_soferi" begin="0.00" departLane="best" departSpeed="max" route="route_30" end="3600.00" vehsPerHour="5.00"/>
    <flow id="flow_secundar_31" type="mix_soferi" begin="0.00" departLane="best" departSpeed="max" route="route_31" end="3600.00" vehsPerHour="5.00"/>
    <flow id="flow_secundar_32" type="mix_soferi" begin="0.00" departLane="best" departSpeed="max" route="route_32" end="3600.00" vehsPerHour="5.00"/>
    <flow id="flow_secundar_33" type="mix_soferi" begin="0.00" departLane="best" departSpeed="max" route="route_33" end="3600.00" vehsPerHour="5.00"/>
    <flow id="flow_secundar_34" type="mix_soferi" begin="0.00" departLane="best" departSpeed="max" route="route_34" end="3600.00" vehsPerHour="5.00"/>
    <flow id="flow_secundar_35" type="mix_soferi" begin="0.00" departLane="best" departSpeed="max" route="route_35" end="3600.00" vehsPerHour="5.00"/>
    <flow id="flow_secundar_36" type="mix_soferi" begin="0.00" departLane="best" departSpeed="max" route="route_36" end="3600.00" vehsPerHour="5.00"/>
    <flow id="flow_secundar_37" type="mix_soferi" begin="0.00" departLane="best" departSpeed="max" route="route_37" end="3600.00" vehsPerHour="5.00"/>
    <flow id="flow_secundar_38" type="mix_soferi" begin="0.00" departLane="best" departSpeed="max" route="route_38" end="3600.00" vehsPerHour="5.00"/>
    <flow id="flow_secundar_39" type="mix_soferi" begin="0.00" departLane="best" departSpeed="max" route="route_39" end="3600.00" vehsPerHour="5.00"/>
    <flow id="flow_secundar_40" type="mix_soferi" begin="0.00" departLane="best" departSpeed="max" route="route_40" end="3600.00" vehsPerHour="5.00"/>
    <flow id="flow_secundar_41" type="mix_soferi" begin="0.00" departLane="best" departSpeed="max" route="route_41" end="3600.00" vehsPerHour="5.00"/>
    <flow id="flow_secundar_42" type="mix_soferi" begin="0.00" departLane="best" departSpeed="max" route="route_42" end="3600.00" vehsPerHour="5.00"/>
    <flow id="flow_secundar_43" type="mix_soferi" begin="0.00" departLane="best" departSpeed="max" route="route_43" end="3600.00" vehsPerHour="5.00"/>
    <flow id="flow_secundar_44" type="mix_soferi" begin="0.00" departLane="best" departSpeed="max" route="route_44" end="3600.00" vehsPerHour="5.00"/>
    <flow id="flow_secundar_45" type="mix_soferi" begin="0.00" departLane="best" departSpeed="max" route="route_45" end="3600.00" vehsPerHour="5.00"/>
    <flow id="flow_secundar_46" type="mix_soferi" begin="0.00" departLane="best" departSpeed="max" route="route_46" end="3600.00" vehsPerHour="5.00"/>
    <flow id="flow_secundar_47" type="mix_soferi" begin="0.00" departLane="best" departSpeed="max" route="route_47" end="3600.00" vehsPerHour="5.00"/>
    <flow id="flow_secundar_48" type="mix_soferi" begin="0.00" departLane="best" departSpeed="max" route="route_48" end="3600.00" vehsPerHour="5.00"/>
    <flow id="flow_secundar_49" type="mix_soferi" begin="0.00" departLane="best" departSpeed="max" route="route_49" end="3600.00" vehsPerHour="5.00"/>
    <flow id="flow_secundar_50" type="mix_soferi" begin="0.00" departLane="best" departSpeed="max" route="route_50" end="3600.00" vehsPerHour="5.00"/>
    <flow id="flow_secundar_51" type="mix_soferi" begin="0.00" departLane="best" departSpeed="max" route="route_51" end="3600.00" vehsPerHour="5.00"/>
    <flow id="flow_secundar_52" type="mix_soferi" begin="0.00" departLane="best" departSpeed="max" route="route_52" end="3600.00" vehsPerHour="5.00"/>
    <flow id="flow_secundar_53" type="mix_soferi" begin="0.00" departLane="best" departSpeed="max" route="route_53" end="3600.00" vehsPerHour="5.00"/>
    <flow id="flow_secundar_54" type="mix_soferi" begin="0.00" departLane="best" departSpeed="max" route="route_54" end="3600.00" vehsPerHour="5.00"/>
    <flow id="flow_secundar_55" type="mix_soferi" begin="0.00" departLane="best" departSpeed="max" route="route_55" end="3600.00" vehsPerHour="5.00"/>
    <flow id="flow_secundar_56" type="mix_soferi" begin="0.00" departLane="best" departSpeed="max" route="route_56" end="3600.00" vehsPerHour="5.00"/>
    <flow id="flow_secundar_57" type="mix_soferi" begin="0.00" departLane="best" departSpeed="max" route="route_57" end="3600.00" vehsPerHour="5.00"/>
    <flow id="flow_secundar_58" type="mix_soferi" begin="0.00" departLane="best" departSpeed="max" route="route_58" end="3600.00" vehsPerHour="5.00"/>
    <flow id="flow_secundar_59" type="mix_soferi" begin="0.00" departLane="best" departSpeed="max" route="route_59" end="3600.00" vehsPerHour="5.00"/>
    <flow id="flow_secundar_60" type="mix_soferi" begin="0.00" departLane="best" departSpeed="max" route="route_60" end="3600.00" vehsPerHour="5.00"/>
    <flow id="flow_secundar_61" type="mix_soferi" begin="0.00" departLane="best" departSpeed="max" route="route_61" end="3600.00" vehsPerHour="5.00"/>
    <flow id="flow_secundar_62" type="mix_soferi" begin="0.00" departLane="best" departSpeed="max" route="route_62" end="3600.00" vehsPerHour="5.00"/>
    <flow id="flow_secundar_63" type="mix_soferi" begin="0.00" departLane="best" departSpeed="max" route="route_63" end="3600.00" vehsPerHour="5.00"/>
    <flow id="flow_secundar_64" type="mix_soferi" begin="0.00" departLane="best" departSpeed="max" route="route_64" end="3600.00" vehsPerHour="5.00"/>
    <flow id="flow_secundar_65" type="mix_soferi" begin="0.00" departLane="best" departSpeed="max" route="route_65" end="3600.00" vehsPerHour="5.00"/>
    <flow id="flow_secundar_66" type="mix_soferi" begin="0.00" departLane="best" departSpeed="max" route="route_66" end="3600.00" vehsPerHour="5.00"/>
    <flow id="flow_secundar_67" type="mix_soferi" begin="0.00" departLane="best" departSpeed="max" route="route_67" end="3600.00" vehsPerHour="5.00"/>
    <flow id="flow_secundar_68" type="mix_soferi" begin="0.00" departLane="best" departSpeed="max" route="route_68" end="3600.00" vehsPerHour="5.00"/>
    <flow id="flow_secundar_69" type="mix_soferi" begin="0.00" departLane="best" departSpeed="max" route="route_69" end="3600.00" vehsPerHour="5.00"/>
    <flow id="flow_secundar_70" type="mix_soferi" begin="0.00" departLane="best" departSpeed="max" route="route_70" end="3600.00" vehsPerHour="5.00"/>
    <flow id="flow_secundar_71" type="mix_soferi" begin="0.00" departLane="best" departSpeed="max" route="route_71" end="3600.00" vehsPerHour="5.00"/>
    <flow id="flow_secundar_72" type="mix_soferi" begin="0.00" departLane="best" departSpeed="max" route="route_72" end="3600.00" vehsPerHour="5.00"/>
    <flow id="flow_secundar_73" type="mix_soferi" begin="0.00" departLane="best" departSpeed="max" route="route_73" end="3600.00" vehsPerHour="5.00"/>
    <flow id="flow_secundar_74" type="mix_soferi" begin="0.00" departLane="best" departSpeed="max" route="route_74" end="3600.00" vehsPerHour="5.00"/>
    <flow id="flow_secundar_75" type="mix_soferi" begin="0.00" departLane="best" departSpeed="max" route="route_75" end="3600.00" vehsPerHour="5.00"/>
    <flow id="flow_secundar_76" type="mix_soferi" begin="0.00" departLane="best" departSpeed="max" route="route_76" end="3600.00" vehsPerHour="5.00"/>
    <flow id="flow_secundar_77" type="mix_soferi" begin="0.00" departLane="best" departSpeed="max" route="route_77" end="3600.00" vehsPerHour="5.00"/>
    <flow id="flow_secundar_78" type="mix_soferi" begin="0.00" departLane="best" departSpeed="max" route="route_78" end="3600.00" vehsPerHour="5.00"/>