<?xml version="1.0" encoding="UTF-8"?>

<!-- generated on 04/26/26 12:21:09 by Eclipse SUMO polyconvert Version 1.8.0
<configuration xmlns:xsi="http://www.w3.org/2001/XMLSchema-instance" xsi:noNamespaceSchemaLocation="http://sumo.dlr.de/xsd/polyconvertConfiguration.xsd">

    <input>
        <net-file value="rebreanu_final_clean.net.xml"/>
        <osm-files value="rebreanu_fara.osm"/>
        <type-file value="C:\Program%20Files%20(x86)\Eclipse\Sumo\data\typemap\osmPolyconvert.typ.xml"/>
    </input>

    <output>
        <output-file value="rebreanu_shapes.poly.xml"/>
    </output>

    <processing>
        <poi-layer-offset value="5"/>
    </processing>

</configuration>
-->

<additional xmlns:xsi="http://www.w3.org/2001/XMLSchema-instance" xsi:noNamespaceSchemaLocation="http://sumo.dlr.de/xsd/additional_file.xsd">
    <location netOffset="-516243.00,-5063679.88" convBoundary="-1737.32,-1408.59,6043.43,4838.63" origBoundary="21.186459,45.713799,21.286596,45.769948" projParameter="+proj=utm +zone=34 +ellps=WGS84 +datum=WGS84 +units=m +no_defs"/>

    <poly id="101622475" type="building" color="255,230,230" fill="1" layer="-1.00" shape="367.346719,658.520370 368.315104,648.423746 431.329135,654.447305 430.872971,659.179046 430.360648,664.543920 367.346719,658.520370"/>
    <poly id="101622484" type="building" color="255,230,230" fill="1" layer="-1.00" shape="430.872971,659.179046 431.329135,654.447305 431.849418,649.015791 452.470359,650.982021 451.493878,661.145273 430.872971,659.179046"/>
    <poly id="101622485" type="building" color="255,230,230" fill="1" layer="-1.00" shape="482.885876,659.151921 493.010122,658.490296 491.596656,637.265935 486.390547,637.607470 481.480156,637.927584 482.885876,659.151921"/>
    <poly id="102323355" type="building" color="255,230,230" fill="1" layer="-1.00" shape="105.713923,639.606990 116.194572,639.512310 116.182748,638.090169 115.804991,598.270085 105.324244,598.375876 105.713923,639.606990"/>
    <poly id="102323356" type="building" color="255,230,230" fill="1" layer="-1.00" shape="116.182748,638.090169 116.194572,639.512310 116.286113,649.089576 178.819826,648.509834 178.716572,637.510425 116.182748,638.090169"/>
    <poly id="102323359" type="building" color="255,230,230" fill="1" layer="-1.00" shape="30.217284,631.432032 56.398744,631.478305 56.411543,626.589834 56.421449,619.834836 30.239969,619.777453 30.217284,631.432032"/>
    <poly id="102323360" type="building" color="255,230,230" fill="1" layer="-1.00" shape="265.336571,608.508483 266.000430,619.298285 299.415658,617.253822 298.751856,606.464016 265.336571,608.508483"/>
    <poly id="102323361" type="building" color="255,230,230" fill="1" layer="-1.00" shape="56.388839,638.233303 56.398744,631.478305 56.411543,626.589834 82.328457,626.646634 82.305704,638.290104 56.388839,638.233303"/>
    <poly id="102323364" type="building" color="255,230,230" fill="1" layer="-1.00" shape="253.160391,620.086406 266.000430,619.298285 265.336571,608.508483 264.090778,588.306766 251.250675,589.094891 253.160391,620.086406"/>
    <poly id="102323365" type="building" color="255,230,230" fill="1" layer="-1.00" shape="285.526195,649.914364 348.663797,656.304052 349.726347,645.896589 286.588641,639.506890 285.526195,649.914364"/>
    <poly id="102323366" type="building" color="255,230,230" fill="1" layer="-1.00" shape="197.625465,616.073133 210.941174,614.886186 209.164954,595.127488 195.849203,596.314439 197.625465,616.073133"/>
    <poly id="102323367" type="building" color="255,230,230" fill="1" layer="-1.00" shape="191.632948,643.155181 213.073810,644.033979 212.915966,647.822153 275.814826,650.388548 276.247831,639.679426 213.356643,637.113048 213.522914,633.080470 192.089767,632.212802 191.632948,643.155181"/>
    <poly id="1049318380" type="building" color="255,230,230" fill="1" layer="-1.00" shape="3436.935503,1202.171701 3456.735849,1233.954191 3473.089997,1223.840066 3453.289736,1192.046414 3436.935503,1202.171701"/>
    <poly id="1049318381" type="parking" color="184,184,179" fill="1" layer="-1.00" shape="3420.527076,1212.230198 3434.226762,1202.596438 3402.757442,1158.133682 3389.057708,1167.767510 3420.527076,1212.230198"/>
    <poly id="1054670032" type="amenity" color="237,199,199" fill="1" layer="-1.00" shape="2687.747230,1210.380532 2710.758197,1205.884239 2717.032753,1237.778724 2720.112589,1253.420262 2712.561676,1254.897149 2670.377834,1263.145967 2661.023078,1215.610019 2675.408798,1212.798388 2681.651971,1211.573016 2687.747230,1210.380532"/>
    <poly id="1054670032#1" type="building" color="255,230,230" fill="1" layer="-1.00" shape="2687.747230,1210.380532 2710.758197,1205.884239 2717.032753,1237.778724 2720.112589,1253.420262 2712.561676,1254.897149 2670.377834,1263.145967 2661.023078,1215.610019 2675.408798,1212.798388 2681.651971,1211.573016 2687.747230,1210.380532"/>
    <poly id="1054670035" type="amenity" color="237,199,199" fill="1" layer="-1.00" shape="2720.112589,1253.420262 2750.876759,1247.403417 2751.535611,1250.749620 2768.614713,1247.413131 2760.992051,1208.681657 2738.627152,1213.057521 2742.511317,1232.801214 2720.706999,1237.067750 2717.032753,1237.778724 2720.112589,1253.420262"/>
    <poly id="1054670035#1" type="building" color="255,230,230" fill="1" layer="-1.00" shape="2720.112589,1253.420262 2750.876759,1247.403417 2751.535611,1250.749620 2768.614713,1247.413131 2760.992051,1208.681657 2738.627152,1213.057521 2742.511317,1232.801214 2720.706999,1237.067750 2717.032753,1237.778724 2720.112589,1253.420262"/>
    <poly id="1054670036" type="landuse" color="194,194,130" fill="1" layer="-3.00" shape="2712.561676,1254.897149 2716.338885,1268.907599 2776.895476,1259.148659 2749.152737,1157.149403 2732.545667,1161.242884 2714.520583,1199.229533 2714.248859,1204.150557 2720.706999,1237.067750 2717.032753,1237.778724 2720.112589,1253.420262 2712.561676,1254.897149"/>
    <poly id="106993392" type="parking" color="184,184,179" fill="1" layer="-1.00" shape="2803.483876,1244.864380 2797.094967,1219.980038 2776.333869,1145.055540 2831.687290,1130.114954 2857.818898,1229.409840 2803.483876,1244.864380"/>
    <poly id="106993690" type="amenity" color="237,199,199" fill="1" layer="-1.00" shape="2683.869078,1239.766521 2681.958528,1228.450453 2693.859980,1226.453471 2695.762729,1237.769519 2683.869078,1239.766521"/>
    <poly id="106993690#1" type="building" color="255,230,230" fill="1" layer="-1.00" shape="2683.869078,1239.766521 2681.958528,1228.450453 2693.859980,1226.453471 2695.762729,1237.769519 2683.869078,1239.766521"/>
    <poly id="106993715" type="amenity" color="237,199,199" fill="1" layer="-1.00" shape="2579.643532,1370.707231 2587.997126,1376.432071 2591.239909,1371.731126 2595.308006,1374.521007 2602.957862,1363.433891 2596.164736,1358.780340 2594.586329,1361.064280 2588.957748,1357.203091 2588.340470,1358.090046 2580.190522,1369.908945 2579.643532,1370.707231"/>
    <poly id="106993715#1" type="building" color="255,230,230" fill="1" layer="-1.00" shape="2579.643532,1370.707231 2587.997126,1376.432071 2591.239909,1371.731126 2595.308006,1374.521007 2602.957862,1363.433891 2596.164736,1358.780340 2594.586329,1361.064280 2588.957748,1357.203091 2588.340470,1358.090046 2580.190522,1369.908945 2579.643532,1370.707231"/>
    <poly id="107481424" type="building" color="255,230,230" fill="1" layer="-1.00" shape="2986.365383,1161.366351 2990.111444,1172.688186 2997.229497,1170.354806 2997.530061,1171.277888 3010.714838,1166.952320 3010.344945,1165.806818 3017.003522,1163.627583 3013.303772,1152.439199 3005.975429,1154.838571 3005.536100,1153.503980 2993.348150,1157.499331 2993.818326,1158.922899 2986.365383,1161.366351"/>
    <poly id="107481425" type="building" color="255,230,230" fill="1" layer="-1.00" shape="2979.278056,1176.421103 2975.517962,1164.599269 2969.256790,1166.579790 2968.856113,1165.323092 2957.089213,1169.030946 2957.566937,1170.532307 2949.125298,1173.194959 2952.831491,1184.849956 2961.919493,1181.978209 2962.397249,1183.468460 2972.855879,1180.156546 2972.362771,1178.599585 2979.278056,1176.421103"/>
    <poly id="107481427" type="building" color="255,230,230" fill="1" layer="-1.00" shape="3154.639274,1090.882711 3159.403205,1102.541129 3174.445064,1096.555154 3177.826784,1082.422323 3166.647019,1054.933960 3154.533732,1059.840272 3165.709330,1086.184242 3154.639274,1090.882711"/>
    <poly id="107481428" type="building" color="255,230,230" fill="1" layer="-1.00" shape="3072.243712,1080.016170 3084.863220,1114.997159 3100.495065,1121.911868 3130.783476,1111.606850 3126.441552,1099.327593 3096.149878,1110.665877 3083.295715,1076.106328 3072.243712,1080.016170"/>
    <poly id="107481429" type="building" color="255,230,230" fill="1" layer="-1.00" shape="3137.163647,1098.927667 3141.548359,1109.951604 3158.693223,1103.183311 3154.308535,1092.159362 3137.163647,1098.927667"/>
    <poly id="107481434" type="building" color="255,230,230" fill="1" layer="-1.00" shape="2914.286246,1211.306980 2919.461028,1226.088466 2942.435739,1218.248724 2959.955224,1221.013658 2970.845227,1208.992615 2983.797164,1204.455177 2979.664395,1189.876840 2914.286246,1211.306980"/>
    <poly id="107481434#1" type="shop" color="237,199,255" fill="1" layer="-1.00" shape="2914.286246,1211.306980 2919.461028,1226.088466 2942.435739,1218.248724 2959.955224,1221.013658 2970.845227,1208.992615 2983.797164,1204.455177 2979.664395,1189.876840 2914.286246,1211.306980"/>
    <poly id="107481435" type="building" color="255,230,230" fill="1" layer="-1.00" shape="3050.186504,1170.640942 3052.838623,1201.024659 3065.250857,1199.952123 3062.598799,1169.568401 3050.186504,1170.640942"/>
    <poly id="107481435#1" type="shop" color="237,199,255" fill="1" layer="-1.00" shape="3050.186504,1170.640942 3052.838623,1201.024659 3065.250857,1199.952123 3062.598799,1169.568401 3050.186504,1170.640942"/>
    <poly id="107481436" type="building" color="255,230,230" fill="1" layer="-1.00" shape="3215.317161,1077.950864 3225.804970,1072.872932 3236.457545,1094.704623 3225.969763,1099.782537 3215.317161,1077.950864"/>
    <poly id="107481438" type="building" color="255,230,230" fill="1" layer="-1.00" shape="3195.450441,1044.446860 3212.849421,1078.420892 3222.239314,1073.639500 3204.840372,1039.665441 3195.450441,1044.446860"/>
    <poly id="107481441" type="amenity" color="237,199,199" fill="1" layer="-1.00" shape="3013.173387,1184.525272 3018.424276,1199.784818 3031.197228,1195.280255 3025.806123,1180.086926 3013.173387,1184.525272"/>
    <poly id="107481441#1" type="building" color="255,230,230" fill="1" layer="-1.00" shape="3013.173387,1184.525272 3018.424276,1199.784818 3031.197228,1195.280255 3025.806123,1180.086926 3013.173387,1184.525272"/>
    <poly id="107481446" type="building" color="255,230,230" fill="1" layer="-1.00" shape="3068.827268,1198.196685 3089.891970,1196.728859 3089.072734,1184.960531 3068.007993,1186.428360 3068.827268,1198.196685"/>
    <poly id="1076845211" type="residential" color="235,235,227" fill="1" layer="-3.00" shape="3741.625215,870.700689 3717.277158,888.776764 3668.465102,878.610077 3667.765670,834.577810 3747.139973,844.509250 3741.625215,870.700689"/>
    <poly id="109556401" type="building" color="255,230,230" fill="1" layer="-1.00" shape="2511.797315,1187.327355 2550.366754,1206.442255 2622.424613,1242.135343 2626.698427,1233.548947 2628.976183,1228.989531 2568.283183,1198.919172 2574.263263,1186.927044 2621.540703,1210.346174 2634.722135,1183.921469 2625.594449,1179.405243 2555.563405,1144.718171 2566.217045,1123.163100 2563.699446,1122.133348 2573.077467,1103.074246 2564.815934,1100.227269 2559.070530,1111.775702 2544.621285,1104.643720 2554.797123,1084.164885 2520.062104,1067.761318 2514.351322,1078.165539 2541.472053,1091.201899 2531.941769,1111.760475 2512.580604,1102.947213 2509.501203,1110.204051 2528.023427,1118.581473 2529.040980,1116.540253 2536.436524,1120.184509 2535.129303,1122.824809 2550.751502,1130.549156 2551.722113,1128.596679 2553.524397,1129.479832 2536.927748,1163.660479 2535.001905,1167.632145 2559.462071,1180.471688 2554.217846,1190.966165 2542.847545,1184.521211 2547.776907,1175.236794 2524.566472,1163.323217 2518.181881,1175.325283 2511.797315,1187.327355"/>
    <poly id="109730443" type="building" color="255,230,230" fill="1" layer="-1.00" shape="2410.350653,1279.748824 2410.168670,1270.382320 2444.822349,1266.953204 2445.424384,1276.320971 2410.350653,1279.748824"/>
    <poly id="109730446" type="building" color="255,230,230" fill="1" layer="-1.00" shape="2319.297534,1292.342301 2317.689408,1270.705808 2326.460261,1269.687604 2328.270000,1291.535796 2319.297534,1292.342301"/>
    <poly id="109730447" type="building" color="255,230,230" fill="1" layer="-1.00" shape="2371.533422,1317.485306 2369.580707,1307.080252 2441.721394,1291.808683 2443.463642,1302.313120 2371.533422,1317.485306"/>
    <poly id="109730448" type="building" color="255,230,230" fill="1" layer="-1.00" shape="2317.115405,1525.795954 2324.237960,1524.339533 2331.638057,1523.728329 2327.361022,1457.987183 2326.054202,1457.938842 2315.245986,1458.750985 2313.052173,1458.744444 2317.115405,1525.795954"/>
    <poly id="109730449" type="building" color="255,230,230" fill="1" layer="-1.00" shape="2303.089764,1282.750263 2311.640879,1282.364668 2309.895525,1238.896089 2300.504104,1239.290293 2303.089764,1282.750263"/>
    <poly id="109730450" type="building" color="255,230,230" fill="1" layer="-1.00" shape="2330.120769,1299.629596 2330.146827,1290.897001 2354.364058,1288.680598 2354.956622,1298.659392 2330.120769,1299.629596"/>
    <poly id="109730453" type="building" color="255,230,230" fill="1" layer="-1.00" shape="2384.995800,1282.539338 2384.601832,1273.805486 2405.061548,1271.578036 2405.866581,1280.724201 2384.995800,1282.539338"/>
    <poly id="110774790" type="building" color="255,230,230" fill="1" layer="-1.00" shape="405.489395,715.762230 406.921430,701.056100 449.111792,705.135442 447.679658,719.841562 405.489395,715.762230"/>
    <poly id="110774791" type="building" color="255,230,230" fill="1" layer="-1.00" shape="227.675169,721.522073 229.068183,721.403546 276.803969,717.441471 275.188401,698.805311 273.351691,699.000422 272.974785,694.433113 225.760348,698.307716 227.675169,721.522073"/>
    <poly id="110774795" type="building" color="255,230,230" fill="1" layer="-1.00" shape="276.803969,717.441471 309.746196,714.595874 308.379830,698.837919 308.130727,695.959705 275.188401,698.805311 276.803969,717.441471"/>
    <poly id="110774795#1" type="shop" color="237,199,255" fill="1" layer="-1.00" shape="276.803969,717.441471 309.746196,714.595874 308.379830,698.837919 308.130727,695.959705 275.188401,698.805311 276.803969,717.441471"/>
    <poly id="110774796" type="building" color="255,230,230" fill="1" layer="-1.00" shape="378.103831,703.490006 404.131193,705.770491 405.021500,695.795875 378.994126,693.504277 378.320339,701.079662 378.103831,703.490006"/>
    <poly id="110774797" type="amenity" color="237,199,199" fill="1" layer="-1.00" shape="150.468468,695.431420 149.378223,678.074355 163.681145,677.178774 164.763541,694.546931 150.468468,695.431420"/>
    <poly id="110774797#1" type="building" color="255,230,230" fill="1" layer="-1.00" shape="150.468468,695.431420 149.378223,678.074355 163.681145,677.178774 164.763541,694.546931 150.468468,695.431420"/>
    <poly id="111288443" type="building" color="255,230,230" fill="1" layer="-1.00" shape="2364.543982,1383.626077 2372.012585,1370.571619 2388.197812,1379.786024 2380.729218,1392.829352 2364.543982,1383.626077"/>
    <poly id="111288453" type="building" color="255,230,230" fill="1" layer="-1.00" shape="2322.640652,1413.043155 2323.018263,1406.422558 2325.186763,1399.274012 2328.801173,1392.496420 2318.852751,1386.700510 2314.469658,1395.586768 2312.226515,1404.290534 2311.832358,1413.855304 2322.640652,1413.043155"/>
    <poly id="111288491" type="building" color="255,230,230" fill="1" layer="-1.00" shape="2367.999278,1531.536377 2374.072076,1519.522112 2340.872403,1502.846359 2334.807432,1514.860679 2367.999278,1531.536377"/>
    <poly id="111288500" type="building" color="255,230,230" fill="1" layer="-1.00" shape="2338.471808,1491.328947 2347.319347,1495.788368 2371.931145,1447.221151 2346.941880,1434.636292 2333.481702,1461.205207 2349.623325,1469.330577 2338.471808,1491.328947"/>
    <poly id="111288531" type="building" color="255,230,230" fill="1" layer="-1.00" shape="2253.739965,1479.999605 2245.506090,1402.492098 2235.545068,1403.540212 2243.779065,1481.047705 2253.739965,1479.999605"/>
    <poly id="111288544" type="building" color="255,230,230" fill="1" layer="-1.00" shape="2363.221548,1427.829900 2338.502963,1418.356761 2341.858578,1409.667437 2366.577193,1419.140589 2363.221548,1427.829900"/>
    <poly id="111288549" type="building" color="255,230,230" fill="1" layer="-1.00" shape="2399.001657,1377.885187 2405.357624,1364.905208 2420.971958,1372.506998 2414.608186,1385.486937 2399.001657,1377.885187"/>
    <poly id="111288551" type="building" color="255,230,230" fill="1" layer="-1.00" shape="2358.875917,1502.255747 2409.188074,1402.891600 2423.776176,1410.234786 2373.463843,1509.598817 2358.875917,1502.255747"/>
    <poly id="111288555" type="building" color="255,230,230" fill="1" layer="-1.00" shape="2330.966424,1389.047586 2337.470215,1376.012429 2354.591218,1384.496261 2348.087399,1397.531401 2330.966424,1389.047586"/>
    <poly id="111288576" type="building" color="255,230,230" fill="1" layer="-1.00" shape="2226.552635,1403.269095 2224.845688,1383.376643 2234.985111,1382.517916 2236.684279,1402.399237 2226.552635,1403.269095"/>
    <poly id="111456891" type="building" color="255,230,230" fill="1" layer="-1.00" shape="2189.277927,1285.923020 2204.519614,1248.793216 2214.271460,1252.777382 2199.029757,1289.896053 2189.277927,1285.923020"/>
    <poly id="111456896" type="building" color="255,230,230" fill="1" layer="-1.00" shape="2215.868546,1299.245265 2230.640543,1263.136275 2240.027067,1266.997185 2225.255024,1303.106153 2215.868546,1299.245265"/>
    <poly id="111456897" type="building" color="255,230,230" fill="1" layer="-1.00" shape="2012.517955,1170.499689 2017.058715,1160.813747 2066.727746,1183.924577 2062.186925,1193.610484 2012.517955,1170.499689"/>
    <poly id="111456898" type="building" color="255,230,230" fill="1" layer="-1.00" shape="2162.224649,1284.320855 2181.400307,1292.699180 2185.606322,1283.145691 2166.430640,1274.767352 2162.224649,1284.320855"/>
    <poly id="111456899" type="building" color="255,230,230" fill="1" layer="-1.00" shape="2192.534842,1297.376243 2210.242170,1305.039252 2213.876680,1296.706216 2196.169366,1289.032087 2192.534842,1297.376243"/>
    <poly id="111456902" type="building" color="255,230,230" fill="1" layer="-1.00" shape="2223.695326,1259.793694 2232.825293,1263.598281 2243.724237,1237.588172 2234.594206,1233.794680 2223.695326,1259.793694"/>
    <poly id="111456905" type="building" color="255,230,230" fill="1" layer="-1.00" shape="2152.718497,1270.915988 2162.252213,1274.999421 2185.039928,1222.193080 2175.506145,1218.109613 2152.718497,1270.915988"/>
    <poly id="111456925" type="building" color="255,230,230" fill="1" layer="-1.00" shape="2092.096477,1218.763280 2101.582423,1223.257558 2116.064532,1192.947008 2106.586363,1188.441621 2092.096477,1218.763280"/>
    <poly id="111459873" type="building" color="255,230,230" fill="1" layer="-1.00" shape="1831.650459,975.008969 1834.154637,970.005513 1856.279971,975.847142 1852.365513,984.235118 1831.650459,975.008969"/>
    <poly id="111459881" type="building" color="255,230,230" fill="1" layer="-1.00" shape="1822.389831,973.104451 1833.100642,949.837331 1843.521701,954.022838 1831.862544,968.954493 1828.746295,975.756034 1822.389831,973.104451"/>
    <poly id="111763304" type="building" color="255,230,230" fill="1" layer="-1.00" shape="3725.077450,741.857252 3725.070569,758.555975 3798.237787,758.568896 3798.245411,775.534314 3634.871599,778.154694 3634.535750,759.066168 3714.557522,759.077776 3714.558447,741.801299 3667.548926,741.795200 3667.563231,652.179770 3797.794399,652.197683 3797.778041,741.868669 3725.077450,741.857252"/>
    <poly id="1124118237" type="building" color="255,230,230" fill="1" layer="-1.00" shape="2250.835176,1258.474382 2251.238688,1245.732102 2243.988560,1245.510579 2243.585095,1258.241749 2250.835176,1258.474382"/>
    <poly id="1124118238" type="building" color="255,230,230" fill="1" layer="-1.00" shape="2270.023935,1259.820219 2272.000349,1259.703885 2272.207176,1263.404220 2270.090728,1263.520137 2270.356786,1268.231683 2263.128140,1268.643486 2262.647465,1260.231583 2270.023935,1259.820219"/>
    <poly id="112492735" type="building" color="255,230,230" fill="1" layer="-1.00" shape="3247.093228,1069.728683 3243.120942,1058.728183 3307.487790,1035.665099 3311.452162,1046.676726 3247.093228,1069.728683"/>
    <poly id="112492740" type="building" color="255,230,230" fill="1" layer="-1.00" shape="3257.961798,1102.060299 3270.025133,1098.198398 3263.568290,1078.157440 3251.504921,1082.019354 3257.961798,1102.060299"/>
    <poly id="112492746" type="amenity" color="237,199,199" fill="1" layer="-1.00" shape="3354.090305,1124.693869 3353.961831,1118.549480 3353.840961,1112.460667 3358.548125,1112.375496 3358.534385,1111.797718 3361.187511,1111.750523 3361.193611,1112.283835 3371.930666,1112.073235 3373.000261,1110.887806 3374.223144,1110.436139 3375.849217,1110.419043 3376.889905,1111.000058 3377.695969,1111.969193 3379.563289,1111.930638 3379.596515,1113.730608 3381.411130,1115.602856 3381.434792,1120.435902 3379.756684,1122.152705 3379.781078,1124.285955 3378.092770,1124.302853 3377.249424,1125.289010 3376.057418,1125.818546 3374.439059,1125.857886 3373.102562,1125.331491 3372.342933,1124.440275 3361.605864,1124.661984 3361.612245,1125.106415 3358.756776,1125.175194 3358.743036,1124.597417 3354.090305,1124.693869"/>
    <poly id="112492746#1" type="building" color="255,230,230" fill="1" layer="-1.00" shape="3354.090305,1124.693869 3353.961831,1118.549480 3353.840961,1112.460667 3358.548125,1112.375496 3358.534385,1111.797718 3361.187511,1111.750523 3361.193611,1112.283835 3371.930666,1112.073235 3373.000261,1110.887806 3374.223144,1110.436139 3375.849217,1110.419043 3376.889905,1111.000058 3377.695969,1111.969193 3379.563289,1111.930638 3379.596515,1113.730608 3381.411130,1115.602856 3381.434792,1120.435902 3379.756684,1122.152705 3379.781078,1124.285955 3378.092770,1124.302853 3377.249424,1125.289010 3376.057418,1125.818546 3374.439059,1125.857886 3373.102562,1125.331491 3372.342933,1124.440275 3361.605864,1124.661984 3361.612245,1125.106415 3358.756776,1125.175194 3358.743036,1124.597417 3354.090305,1124.693869"/>
    <poly id="112492749" type="building" color="255,230,230" fill="1" layer="-1.00" shape="3314.052622,1013.876248 3328.396364,1022.187377 3356.601641,1011.543597 3352.041374,999.541251 3325.518566,1009.545945 3314.052622,1013.876248"/>
    <poly id="112492752" type="building" color="255,230,230" fill="1" layer="-1.00" shape="2960.801890,1143.277672 2964.944781,1154.600715 2976.519790,1150.059012 2979.611478,1141.513648 2971.496075,1139.288756 2960.801890,1143.277672"/>
    <poly id="112492755" type="building" color="255,230,230" fill="1" layer="-1.00" shape="2854.912873,1111.587575 2880.358338,1183.426960 2891.425629,1179.505715 2866.190946,1107.466947 2854.912873,1111.587575"/>
    <poly id="112492756" type="building" color="255,230,230" fill="1" layer="-1.00" shape="3371.072775,1004.100853 3361.415745,977.527980 3373.309588,973.232443 3382.966575,999.805334 3371.072775,1004.100853"/>
    <poly id="112492765" type="building" color="255,230,230" fill="1" layer="-1.00" shape="3002.162616,1134.917168 2998.446780,1123.884287 3064.036852,1102.244590 3067.962608,1113.289271 3002.162616,1134.917168"/>
    <poly id="112492768" type="building" color="255,230,230" fill="1" layer="-1.00" shape="3263.814784,1113.699989 3260.146252,1102.611547 3297.591139,1090.307696 3301.259612,1101.396160 3263.814784,1113.699989"/>
    <poly id="112492772" type="building" color="255,230,230" fill="1" layer="-1.00" shape="3298.355318,1089.754581 3302.077098,1101.209853 3315.449620,1096.674423 3321.954627,1084.006929 3312.865108,1055.069424 3301.169800,1058.143569 3309.640881,1085.834763 3298.355318,1089.754581"/>
    <poly id="112493979" type="building" color="255,230,230" fill="1" layer="-1.00" shape="3425.418345,981.507377 3416.615217,955.603733 3427.511320,951.927323 3436.314408,977.830983 3425.418345,981.507377"/>
    <poly id="112493981" type="building" color="255,230,230" fill="1" layer="-1.00" shape="3387.293768,964.810497 3397.283499,991.939974 3408.453127,987.853314 3398.463439,960.723819 3387.293768,964.810497"/>
    <poly id="112576719" type="building" color="255,230,230" fill="1" layer="-1.00" shape="1993.596899,1152.023404 2002.841744,1156.550155 2013.853568,1134.228591 2004.600917,1129.701802 1993.596899,1152.023404"/>
    <poly id="112576721" type="building" color="255,230,230" fill="1" layer="-1.00" shape="1770.270883,975.697643 1775.235293,964.712855 1800.536738,978.007354 1795.077750,987.824112 1770.270883,975.697643"/>
    <poly id="113458047" type="building" color="255,230,230" fill="1" layer="-1.00" shape="1773.056717,945.941321 1807.824822,959.885430 1812.568535,949.911064 1778.013342,934.967623 1773.056717,945.941321"/>
    <poly id="113458054" type="building" color="255,230,230" fill="1" layer="-1.00" shape="1807.334563,962.606022 1818.652540,939.218424 1826.490110,943.574172 1816.008224,965.708721 1807.334563,962.606022"/>
    <poly id="113459665" type="building" color="255,230,230" fill="1" layer="-1.00" shape="1896.944281,1086.168200 1901.909025,1088.460274 1906.236686,1090.450518 1918.121513,1064.820476 1908.829077,1060.538140 1896.944281,1086.168200"/>
    <poly id="113459672" type="building" color="255,230,230" fill="1" layer="-1.00" shape="1881.461349,1107.788110 1892.445682,1084.099692 1896.944281,1086.168200 1901.909025,1088.460274 1895.426441,1102.440312 1890.924663,1112.148675 1881.461349,1107.788110"/>
    <poly id="113459677" type="building" color="255,230,230" fill="1" layer="-1.00" shape="1971.627606,1159.580717 1978.108320,1146.278478 2001.314059,1157.512270 1994.841120,1170.803398 1971.627606,1159.580717"/>
    <poly id="113460580" type="building" color="255,230,230" fill="1" layer="-1.00" shape="1787.607861,1071.418292 1792.570617,1060.989024 1826.165429,1076.863027 1821.202597,1087.303379 1787.607861,1071.418292"/>
    <poly id="113460582" type="building" color="255,230,230" fill="1" layer="-1.00" shape="1845.657676,1062.342978 1850.487534,1052.168906 1884.244334,1068.488104 1879.626918,1077.829500 1845.657676,1062.342978"/>
    <poly id="113460583" type="building" color="255,230,230" fill="1" layer="-1.00" shape="1804.326650,1031.336480 1813.114177,1035.383879 1823.229503,1013.514905 1815.428824,1009.881435 1814.434172,1009.467470 1804.326650,1031.336480"/>
    <poly id="113460584" type="building" color="255,230,230" fill="1" layer="-1.00" shape="1859.642148,1018.253674 1902.885478,1039.066894 1907.714832,1029.103959 1864.471449,1008.290706 1859.642148,1018.253674"/>
    <poly id="113460585" type="building" color="255,230,230" fill="1" layer="-1.00" shape="1763.387773,1063.648769 1767.882538,1053.618097 1790.011607,1063.459198 1785.509001,1073.500941 1763.387773,1063.648769"/>
    <poly id="113460586" type="building" color="255,230,230" fill="1" layer="-1.00" shape="1816.683560,1052.048516 1829.673530,1026.188199 1839.361237,1031.027077 1826.363458,1056.887351 1816.683560,1052.048516"/>
    <poly id="113460588" type="building" color="255,230,230" fill="1" layer="-1.00" shape="1798.260334,1030.596728 1807.817958,1034.690792 1798.998222,1055.174764 1789.440593,1051.091823 1798.260334,1030.596728"/>
    <poly id="113750660" type="parking" color="184,184,179" fill="1" layer="-1.00" shape="26.328851,731.947299 65.241026,728.127203 64.960370,725.371128 64.005409,712.714065 63.486721,705.779917 81.937809,704.406165 82.110611,706.750879 107.355402,704.861730 113.572800,704.555866 113.188171,699.921886 143.297344,697.445713 150.184570,696.875003 150.468468,695.431420 149.378223,678.074355 21.034140,691.792173 26.039294,729.613392 26.328851,731.947299"/>
    <poly id="113750665" type="building" color="255,230,230" fill="1" layer="-1.00" shape="169.011508,694.613680 189.703066,693.379477 189.345295,687.434554 189.062278,682.645294 180.572409,683.156182 180.184709,676.755661 170.333049,677.340742 167.982972,677.478979 169.011508,694.613680"/>
    <poly id="113750668" type="building" color="255,230,230" fill="1" layer="-1.00" shape="362.922357,707.071430 373.445121,705.732948 378.320339,701.079662 378.994126,693.504277 379.281104,690.927467 374.218000,690.180674 366.955237,697.349617 362.820676,701.438266 362.922357,707.071430"/>
    <poly id="113750670" type="parking" color="184,184,179" fill="1" layer="-1.00" shape="188.754121,675.589479 189.062278,682.645294 189.345295,687.434554 189.703066,693.379477 190.904004,701.182035 225.760348,698.307716 272.974785,694.433113 273.351691,699.000422 275.188401,698.805311 308.130727,695.959705 308.379830,698.837919 309.746196,714.595874 310.766741,725.808821 319.451842,725.009764 331.561175,723.897639 347.896273,722.419049 345.010880,686.947471 308.057218,682.638331 239.417771,676.723335 216.001349,675.628128 188.754121,675.589479"/>
    <poly id="1145607616" type="landuse" color="194,194,130" fill="1" layer="-3.00" shape="3854.817940,941.470964 3768.289015,918.882748 3751.228121,901.562550 3822.091638,848.183469 3875.620416,864.999440 3854.817940,941.470964"/>
    <poly id="1145613959" type="building" color="255,230,230" fill="1" layer="-1.00" shape="2675.408798,1212.798388 2674.527731,1208.318270 2673.792250,1204.571872 2686.130663,1202.165124 2686.820168,1205.678067 2687.747230,1210.380532 2681.651971,1211.573016 2675.408798,1212.798388"/>