<?xml version="1.0" encoding="UTF-8"?>

<!-- generated on 04/29/26 18:26:35 by Eclipse SUMO netedit Version 1.8.0
<configuration xmlns:xsi="http://www.w3.org/2001/XMLSchema-instance" xsi:noNamespaceSchemaLocation="http://sumo.dlr.de/xsd/netconvertConfiguration.xsd">

    <input>
        <sumo-net-file value="D:\licenta%20rebreanu\map\rebreanu_greenwave.net.xml"/>
    </input>

    <output>
        <output-file value="D:\licenta%20rebreanu\map\rebreanu_greenwave.net.xml"/>
    </output>

    <processing>
        <geometry.min-radius.fix.railways value="false"/>
        <geometry.max-grade.fix value="false"/>
        <offset.disable-normalization value="true"/>
        <lefthand value="false"/>
    </processing>

    <junctions>
        <no-turnarounds value="true"/>
        <junctions.corner-detail value="5"/>
        <junctions.limit-turn-speed value="5.5"/>
        <rectangular-lane-cut value="false"/>
    </junctions>

    <pedestrian>
        <walkingareas value="false"/>
    </pedestrian>

    <report>
        <aggregate-warnings value="5"/>
    </report>

</configuration>
-->

<net version="1.6" junctionCornerDetail="5" limitTurnSpeed="5.50" xmlns:xsi="http://www.w3.org/2001/XMLSchema-instance" xsi:noNamespaceSchemaLocation="http://sumo.dlr.de/xsd/net_file.xsd">

    <location netOffset="-516243.00,-5063679.88" convBoundary="0.00,0.00,3897.56,1608.84" origBoundary="21.208767,45.726468,21.258866,45.740882" projParameter="+proj=utm +zone=34 +ellps=WGS84 +datum=WGS84 +units=m +no_defs"/>

    <type id="highway.bridleway" priority="1" numLanes="1" speed="2.78" allow="pedestrian" oneway="1" width="2.00"/>
    <type id="highway.bus_guideway" priority="1" numLanes="1" speed="27.78" allow="bus" oneway="1"/>
    <type id="highway.cycleway" priority="1" numLanes="1" speed="8.33" allow="bicycle" oneway="1" width="1.00"/>
    <type id="highway.footway" priority="1" numLanes="1" speed="2.78" allow="pedestrian" oneway="1" width="2.00"/>
    <type id="highway.ford" priority="1" numLanes="1" speed="2.78" allow="army" oneway="1"/>
    <type id="highway.living_street" priority="2" numLanes="1" speed="2.78" disallow="tram rail_urban rail rail_electric rail_fast ship" oneway="1"/>
    <type id="highway.motorway" priority="14" numLanes="2" speed="39.44" allow="private emergency authority army vip passenger hov taxi bus coach delivery truck trailer motorcycle evehicle custom1 custom2" oneway="1"/>
    <type id="highway.motorway_link" priority="9" numLanes="1" speed="22.22" allow="private emergency authority army vip passenger hov taxi bus coach delivery truck trailer motorcycle evehicle custom1 custom2" oneway="1"/>
    <type id="highway.path" priority="1" numLanes="1" speed="2.78" allow="pedestrian bicycle" oneway="1" width="2.00"/>
    <type id="highway.pedestrian" priority="1" numLanes="1" speed="2.78" allow="pedestrian" oneway="1" width="2.00"/>
    <type id="highway.primary" priority="12" numLanes="2" speed="27.78" disallow="tram rail_urban rail rail_electric rail_fast ship" oneway="1"/>
    <type id="highway.primary_link" priority="7" numLanes="1" speed="22.22" disallow="tram rail_urban rail rail_electric rail_fast ship" oneway="1"/>
    <type id="highway.raceway" priority="15" numLanes="2" speed="83.33" allow="vip" oneway="1"/>
    <type id="highway.residential" priority="3" numLanes="1" speed="13.89" disallow="tram rail_urban rail rail_electric rail_fast ship" oneway="1"/>
    <type id="highway.secondary" priority="11" numLanes="1" speed="27.78" disallow="tram rail_urban rail rail_electric rail_fast ship" oneway="1"/>
    <type id="highway.secondary_link" priority="6" numLanes="1" speed="22.22" disallow="tram rail_urban rail rail_electric rail_fast ship" oneway="1"/>
    <type id="highway.service" priority="1" numLanes="1" speed="5.56" allow="pedestrian delivery bicycle" oneway="1"/>
    <type id="highway.stairs" priority="1" numLanes="1" speed="1.39" allow="pedestrian" oneway="1" width="2.00"/>
    <type id="highway.step" priority="1" numLanes="1" speed="1.39" allow="pedestrian" oneway="1" width="2.00"/>
    <type id="highway.steps" priority="1" numLanes="1" speed="1.39" allow="pedestrian" oneway="1" width="2.00"/>
    <type id="highway.tertiary" priority="10" numLanes="1" speed="22.22" disallow="tram rail_urban rail rail_electric rail_fast ship" oneway="1"/>
    <type id="highway.tertiary_link" priority="5" numLanes="1" speed="22.22" disallow="tram rail_urban rail rail_electric rail_fast ship" oneway="1"/>
    <type id="highway.track" priority="1" numLanes="1" speed="5.56" allow="pedestrian motorcycle moped bicycle" oneway="1"/>
    <type id="highway.trunk" priority="13" numLanes="2" speed="27.78" disallow="pedestrian bicycle tram rail_urban rail rail_electric rail_fast ship" oneway="1"/>
    <type id="highway.trunk_link" priority="8" numLanes="1" speed="22.22" disallow="pedestrian bicycle tram rail_urban rail rail_electric rail_fast ship" oneway="1"/>
    <type id="highway.unclassified" priority="4" numLanes="1" speed="13.89" disallow="tram rail_urban rail rail_electric rail_fast ship" oneway="1"/>
    <type id="highway.unsurfaced" priority="1" numLanes="1" speed="8.33" disallow="tram rail_urban rail rail_electric rail_fast ship" oneway="1"/>
    <type id="railway.highspeed" priority="21" numLanes="1" speed="69.44" allow="rail_fast" oneway="1"/>
    <type id="railway.light_rail" priority="19" numLanes="1" speed="27.78" allow="rail_urban" oneway="1"/>
    <type id="railway.preserved" priority="16" numLanes="1" speed="27.78" allow="rail" oneway="1"/>
    <type id="railway.rail" priority="20" numLanes="1" speed="44.44" allow="rail" oneway="1"/>
    <type id="railway.subway" priority="18" numLanes="1" speed="27.78" allow="rail_urban" oneway="1"/>
    <type id="railway.tram" priority="17" numLanes="1" speed="13.89" allow="tram" oneway="1"/>

    <edge id=":10729435347_0" function="internal">
        <lane id=":10729435347_0_0" index="0" disallow="tram rail_urban rail rail_electric rail_fast ship" speed="18.06" length="15.47" shape="3213.67,1137.98 3208.48,1123.94"/>
        <lane id=":10729435347_0_1" index="1" disallow="tram rail_urban rail rail_electric rail_fast ship" speed="18.06" length="15.47" shape="3216.96,1137.70 3211.44,1122.72"/>
    </edge>
    <edge id=":10729435347_2" function="internal">
        <lane id=":10729435347_2_0" index="0" disallow="tram rail_urban rail rail_electric rail_fast ship" speed="13.89" length="13.97" shape="3217.36,1120.30 3219.00,1123.27 3220.80,1124.84 3223.07,1126.04 3226.10,1127.91"/>
        <lane id=":10729435347_2_1" index="1" disallow="tram rail_urban rail rail_electric rail_fast ship" speed="13.89" length="13.97" shape="3214.40,1121.51 3216.24,1124.96 3218.24,1126.85 3220.77,1128.31 3224.22,1130.50"/>
        <lane id=":10729435347_2_2" index="2" disallow="tram rail_urban rail rail_electric rail_fast ship" speed="13.89" length="13.97" shape="3214.40,1121.51 3215.97,1125.48 3217.24,1128.19 3219.08,1130.46 3222.34,1133.09"/>
        <lane id=":10729435347_2_3" index="3" disallow="tram rail_urban rail rail_electric rail_fast ship" speed="13.89" length="13.97" shape="3214.40,1121.51 3215.70,1126.10 3216.19,1129.57 3217.29,1132.56 3220.46,1135.68"/>
    </edge>
    <edge id=":11383175249_0" function="internal">
        <lane id=":11383175249_0_0" index="0" disallow="tram rail_urban rail rail_electric rail_fast ship" speed="13.89" length="8.21" shape="3765.44,863.31 3767.19,861.66 3768.14,860.25 3769.08,858.84 3770.84,857.19"/>
        <lane id=":11383175249_0_1" index="1" disallow="tram rail_urban rail rail_electric rail_fast ship" speed="13.89" length="8.21" shape="3767.38,865.86 3769.13,864.20 3770.07,862.80 3771.02,861.39 3772.77,859.74"/>
        <lane id=":11383175249_0_2" index="2" disallow="tram rail_urban rail rail_electric rail_fast ship" speed="13.89" length="8.21" shape="3767.38,865.86 3769.43,864.60 3771.04,864.07 3772.65,863.54 3774.71,862.28"/>
    </edge>
    <edge id=":1259637368_0" function="internal">
        <lane id=":1259637368_0_0" index="0" disallow="tram rail_urban rail rail_electric rail_fast ship" speed="13.89" length="7.66" shape="2606.20,1310.99 2604.12,1311.54 2602.82,1312.32 2601.53,1313.18 2599.50,1313.95"/>
        <lane id=":1259637368_0_1" index="1" disallow="tram rail_urban rail rail_electric rail_fast ship" speed="13.89" length="7.66" shape="2605.74,1307.82 2603.57,1308.39 2602.20,1309.18 2600.84,1310.05 2598.71,1310.85"/>
        <lane id=":1259637368_0_2" index="2" disallow="tram rail_urban rail rail_electric rail_fast ship" speed="13.89" length="7.66" shape="2605.74,1307.82 2603.42,1307.91 2601.80,1307.63 2600.19,1307.43 2597.92,1307.75"/>
    </edge>
    <edge id=":13250184453_0" function="internal">
        <lane id=":13250184453_0_0" index="0" disallow="tram rail_urban rail rail_electric rail_fast ship" speed="13.89" length="3.52" shape="1938.18,1144.77 1938.06,1145.74 1938.36,1146.46 1938.66,1147.18 1938.54,1148.15"/>
    </edge>
    <edge id=":13308832152_0" function="internal">
        <lane id=":13308832152_0_0" index="0" disallow="tram rail_urban rail rail_electric rail_fast ship" speed="13.89" length="8.09" shape="2236.90,1322.99 2239.14,1323.64 2240.78,1323.70 2242.43,1323.72 2244.71,1324.26"/>
        <lane id=":13308832152_0_1" index="1" disallow="tram rail_urban rail rail_electric rail_fast ship" speed="13.89" length="8.09" shape="2235.68,1325.95 2237.96,1326.62 2239.63,1326.69 2241.32,1326.72 2243.64,1327.28"/>
        <lane id=":13308832152_0_2" index="2" disallow="tram rail_urban rail rail_electric rail_fast ship" speed="13.89" length="8.09" shape="2235.68,1325.95 2237.81,1327.09 2239.10,1328.20 2240.41,1329.26 2242.57,1330.30"/>
    </edge>
    <edge id=":13309089601_0" function="internal">
        <lane id=":13309089601_0_0" index="0" disallow="tram rail_urban rail rail_electric rail_fast ship" speed="13.89" length="8.21" shape="2359.20,1352.95 2356.87,1353.56 2355.37,1354.35 2353.87,1355.14 2351.54,1355.75"/>
        <lane id=":13309089601_0_1" index="1" disallow="tram rail_urban rail rail_electric rail_fast ship" speed="13.89" length="8.21" shape="2358.71,1349.79 2356.38,1350.40 2354.88,1351.19 2353.38,1351.98 2351.05,1352.59"/>
        <lane id=":13309089601_0_2" index="2" disallow="tram rail_urban rail rail_electric rail_fast ship" speed="13.89" length="8.21" shape="2358.71,1349.79 2356.30,1349.91 2354.63,1349.61 2352.96,1349.31 2350.56,1349.43"/>
    </edge>
    <edge id=":1675011285_0" function="internal">
        <lane id=":1675011285_0_0" index="0" disallow="tram rail_urban rail rail_electric rail_fast ship" speed="13.89" length="0.83" shape="3253.36,1176.89 3253.20,1176.48"/>
        <lane id=":1675011285_0_1" index="1" disallow="tram rail_urban rail rail_electric rail_fast ship" speed="13.89" length="0.83" shape="3250.47,1178.28 3250.22,1177.64"/>
        <lane id=":1675011285_0_2" index="2" disallow="tram rail_urban rail rail_electric rail_fast ship" speed="13.89" length="0.83" shape="3247.59,1179.67 3247.23,1178.79"/>
        <lane id=":1675011285_0_3" index="3" disallow="tram rail_urban rail rail_electric rail_fast ship" speed="13.89" length="0.83" shape="3244.71,1181.07 3244.24,1179.94"/>
    </edge>
    <edge id=":2009209760_0" function="internal">
        <lane id=":2009209760_0_0" index="0" disallow="tram rail_urban rail rail_electric rail_fast ship" speed="13.89" length="18.03" shape="2578.96,1289.29 2582.20,1291.38 2585.65,1293.56 2589.90,1295.02 2595.50,1294.96"/>
    </edge>
    <edge id=":2009209760_1" function="internal">
        <lane id=":2009209760_1_0" index="0" disallow="tram rail_urban rail rail_electric rail_fast ship" speed="5.47" length="10.47" shape="2576.47,1297.52 2579.88,1296.75 2581.18,1295.60 2580.38,1294.05 2577.46,1292.12"/>
    </edge>
    <edge id=":2009209760_2" function="internal">
        <lane id=":2009209760_2_0" index="0" disallow="tram rail_urban rail rail_electric rail_fast ship" speed="13.89" length="19.33" shape="2576.47,1297.52 2595.50,1294.96"/>
        <lane id=":2009209760_2_1" index="1" disallow="tram rail_urban rail rail_electric rail_fast ship" speed="13.89" length="19.33" shape="2576.88,1300.69 2596.04,1298.12"/>
        <lane id=":2009209760_2_2" index="2" disallow="tram rail_urban rail rail_electric rail_fast ship" speed="13.89" length="19.33" shape="2577.28,1303.86 2596.57,1301.27"/>
    </edge>
    <edge id=":2319496090_0" function="internal">
        <lane id=":2319496090_0_0" index="0" disallow="tram rail_urban rail rail_electric rail_fast ship" speed="22.22" length="1.33" shape="3244.86,1219.51 3244.84,1219.31 3244.80,1219.18 3244.75,1219.06 3244.65,1218.89"/>
        <lane id=":2319496090_0_1" index="1" disallow="tram rail_urban rail rail_electric rail_fast ship" speed="8.74" length="1.33" shape="3248.04,1219.13 3247.96,1218.54 3247.87,1218.14 3247.70,1217.77 3247.40,1217.26"/>
    </edge>
    <edge id=":2319496099_0" function="internal">
        <lane id=":2319496099_0_0" index="0" disallow="tram rail_urban rail rail_electric rail_fast ship" speed="13.89" length="8.21" shape="2883.18,1267.71 2880.86,1268.37 2879.38,1269.19 2877.90,1270.02 2875.59,1270.69"/>
        <lane id=":2319496099_0_1" index="1" disallow="tram rail_urban rail rail_electric rail_fast ship" speed="13.89" length="8.21" shape="2882.62,1264.56 2880.30,1265.22 2878.82,1266.04 2877.34,1266.87 2875.02,1267.54"/>
        <lane id=":2319496099_0_2" index="2" disallow="tram rail_urban rail rail_electric rail_fast ship" speed="13.89" length="8.21" shape="2882.62,1264.56 2880.21,1264.73 2878.54,1264.47 2876.86,1264.21 2874.46,1264.39"/>
    </edge>
    <edge id=":2319707705_0" function="internal">
        <lane id=":2319707705_0_0" index="0" disallow="tram rail_urban rail rail_electric rail_fast ship" speed="22.22" length="0.18" shape="3229.16,1183.94 3229.22,1184.10"/>
        <lane id=":2319707705_0_1" index="1" disallow="tram rail_urban rail rail_electric rail_fast ship" speed="22.22" length="0.18" shape="3232.18,1182.89 3232.25,1183.08"/>
    </edge>
    <edge id=":2328043691_0" function="internal">
        <lane id=":2328043691_0_0" index="0" disallow="tram rail_urban rail rail_electric rail_fast ship" speed="13.89" length="0.23" shape="15.78,664.00 16.11,663.96"/>
        <lane id=":2328043691_0_1" index="1" disallow="tram rail_urban rail rail_electric rail_fast ship" speed="13.89" length="0.23" shape="16.28,667.16 16.39,667.14"/>
    </edge>
    <edge id=":2337829561_0" function="internal">
        <lane id=":2337829561_0_0" index="0" disallow="tram rail_urban rail rail_electric rail_fast ship" speed="14.97" length="3.55" shape="3225.59,1218.04 3224.57,1217.81 3223.85,1217.72 3223.13,1217.73 3222.09,1217.84"/>
    </edge>
    <edge id=":2337829561_1" function="internal">
        <lane id=":2337829561_1_0" index="0" disallow="tram rail_urban rail rail_electric rail_fast ship" speed="13.89" length="3.36" shape="3225.15,1214.12 3221.71,1214.67"/>
        <lane id=":2337829561_1_1" index="1" disallow="tram rail_urban rail rail_electric rail_fast ship" speed="13.89" length="3.36" shape="3224.52,1210.99 3221.33,1211.49"/>
    </edge>
    <edge id=":2337829567_0" function="internal">
        <lane id=":2337829567_0_0" index="0" disallow="tram rail_urban rail rail_electric rail_fast ship" speed="22.22" length="24.16" shape="3254.81,1239.81 3249.94,1245.25 3245.16,1249.93 3241.10,1253.98 3238.38,1257.49"/>
    </edge>
    <edge id=":2337829567_1" function="internal">
        <lane id=":2337829567_1_0" index="0" disallow="tram rail_urban rail rail_electric rail_fast ship" speed="22.22" length="20.79" shape="3235.59,1255.93 3236.77,1252.24 3237.39,1247.73 3238.58,1242.42 3241.49,1236.34"/>
        <lane id=":2337829567_1_1" index="1" disallow="tram rail_urban rail rail_electric rail_fast ship" speed="22.22" length="20.79" shape="3235.59,1255.93 3244.60,1237.43"/>
        <lane id=":2337829567_1_2" index="2" disallow="tram rail_urban rail rail_electric rail_fast ship" speed="22.22" length="20.79" shape="3235.59,1255.93 3237.71,1252.62 3240.41,1248.93 3243.74,1244.39 3247.70,1238.52"/>
    </edge>
    <edge id=":2337829902_0" function="internal">
        <lane id=":2337829902_0_0" index="0" disallow="tram rail_urban rail rail_electric rail_fast ship" speed="22.22" length="0.65" shape="3261.55,1214.30 3261.59,1214.59 3261.61,1214.79 3261.61,1214.98 3261.60,1215.28"/>
        <lane id=":2337829902_0_1" index="1" disallow="tram rail_urban rail rail_electric rail_fast ship" speed="22.22" length="0.65" shape="3258.39,1214.79 3258.40,1214.89 3258.41,1214.96 3258.41,1215.02 3258.41,1215.12"/>
    </edge>
    <edge id=":2337829904_0" function="internal">
        <lane id=":2337829904_0_0" index="0" disallow="tram rail_urban rail rail_electric rail_fast ship" speed="4.31" length="1.15" shape="3233.54,1220.32 3233.33,1220.05 3233.16,1219.89 3232.94,1219.79 3232.61,1219.70"/>
    </edge>
    <edge id=":2338638074_0" function="internal">
        <lane id=":2338638074_0_0" index="0" disallow="tram rail_urban rail rail_electric rail_fast ship" speed="6.71" length="4.62" shape="3241.60,1236.18 3241.71,1235.26 3241.40,1234.00 3240.94,1232.72 3240.57,1231.75"/>
    </edge>
    <edge id=":2338638074_1" function="internal">
        <lane id=":2338638074_1_0" index="0" disallow="tram rail_urban rail rail_electric rail_fast ship" speed="17.12" length="5.35" shape="3244.70,1237.26 3245.24,1235.85 3245.06,1234.74 3244.72,1233.56 3244.75,1231.94"/>
        <lane id=":2338638074_1_1" index="1" disallow="tram rail_urban rail rail_electric rail_fast ship" speed="16.70" length="5.35" shape="3247.81,1238.35 3248.30,1237.01 3248.09,1235.96 3247.73,1234.84 3247.74,1233.30"/>
    </edge>
    <edge id=":2350925883_0" function="internal">
        <lane id=":2350925883_0_0" index="0" disallow="tram rail_urban rail rail_electric rail_fast ship" speed="13.89" length="4.25" shape="3267.42,1204.45 3263.23,1205.63"/>
        <lane id=":2350925883_0_1" index="1" disallow="tram rail_urban rail rail_electric rail_fast ship" speed="13.89" length="4.25" shape="3266.36,1201.43 3262.37,1202.55"/>
    </edge>
    <edge id=":2401855073_0" function="internal">
        <lane id=":2401855073_0_0" index="0" disallow="tram rail_urban rail rail_electric rail_fast ship" speed="13.89" length="0.26" shape="3218.88,1191.65 3219.06,1191.62"/>
        <lane id=":2401855073_0_1" index="1" disallow="tram rail_urban rail rail_electric rail_fast ship" speed="13.89" length="0.26" shape="3219.39,1194.81 3219.71,1194.75"/>
    </edge>
    <edge id=":25478331_0" function="internal">
        <lane id=":25478331_0_0" index="0" disallow="tram rail_urban rail rail_electric rail_fast ship" speed="13.89" length="8.08" shape="3805.75,849.72 3803.97,851.23 3803.01,852.57 3802.09,853.94 3800.39,855.56"/>
        <lane id=":25478331_0_1" index="1" disallow="tram rail_urban rail rail_electric rail_fast ship" speed="13.89" length="8.08" shape="3803.95,847.07 3802.12,848.61 3801.14,849.97 3800.18,851.37 3798.44,853.03"/>
    </edge>
    <edge id=":25659115_0" function="internal">
        <lane id=":25659115_0_0" index="0" disallow="tram rail_urban rail rail_electric rail_fast ship" speed="13.89" length="7.68" shape="806.95,774.37 806.84,776.71 806.71,778.31 806.49,779.89 806.10,782.20"/>
        <lane id=":25659115_0_1" index="1" disallow="tram rail_urban rail rail_electric rail_fast ship" speed="13.89" length="7.68" shape="803.75,774.24 803.65,776.45 803.53,777.97 803.32,779.47 802.95,781.66"/>
    </edge>
    <edge id=":25659115_2" function="internal">
        <lane id=":25659115_2_0" index="0" disallow="tram rail_urban rail rail_electric rail_fast ship" speed="13.89" length="7.41" shape="796.64,780.56 796.49,778.53 795.57,777.22 794.57,775.90 794.16,773.83"/>
        <lane id=":25659115_2_1" index="1" disallow="tram rail_urban rail rail_electric rail_fast ship" speed="13.89" length="7.41" shape="799.79,781.11 799.66,778.96 798.76,777.56 797.76,776.15 797.36,773.97"/>
        <lane id=":25659115_2_2" index="2" disallow="tram rail_urban rail rail_electric rail_fast ship" speed="13.89" length="7.41" shape="799.79,781.11 800.15,779.05 800.34,777.62 800.46,776.19 800.55,774.10"/>
    </edge>
    <edge id=":25659116_0" function="internal">
        <lane id=":25659116_0_0" index="0" disallow="tram rail_urban rail rail_electric rail_fast ship" speed="8.33" length="15.80" shape="801.57,825.62 786.01,822.88"/>
    </edge>
    <edge id=":25659116_1" function="internal">
        <lane id=":25659116_1_0" index="0" disallow="tram rail_urban rail rail_electric rail_fast ship" speed="7.87" length="13.75" shape="801.57,825.62 796.13,824.47 792.33,823.20 790.16,821.81 789.62,820.30"/>
    </edge>
    <edge id=":25659116_2" function="internal">
        <lane id=":25659116_2_0" index="0" disallow="tram rail_urban rail rail_electric rail_fast ship" speed="7.02" length="10.72" shape="801.57,825.62 797.51,824.71 794.69,823.62 793.11,822.34 792.77,820.88"/>
    </edge>
    <edge id=":25659116_3" function="internal">
        <lane id=":25659116_3_0" index="0" disallow="tram rail_urban rail rail_electric rail_fast ship" speed="7.89" length="13.73" shape="799.07,822.03 798.04,823.23 795.52,823.78 791.51,823.66 786.01,822.88"/>
    </edge>
    <edge id=":26001208_0" function="internal">
        <lane id=":26001208_0_0" index="0" disallow="tram rail_urban rail rail_electric rail_fast ship" speed="8.33" length="11.34" shape="518.19,776.55 507.09,774.25"/>
    </edge>
    <edge id=":26001208_1" function="internal">
        <lane id=":26001208_1_0" index="0" disallow="tram rail_urban rail rail_electric rail_fast ship" speed="6.02" length="4.34" shape="512.76,769.48 512.51,772.06 511.58,773.54"/>
    </edge>
    <edge id=":26001208_2" function="internal">
        <lane id=":26001208_2_0" index="0" disallow="tram rail_urban rail rail_electric rail_fast ship" speed="6.02" length="4.73" shape="511.58,773.54 511.48,773.71 509.67,774.44 507.09,774.25"/>
    </edge>
    <edge id=":262639775_0" function="internal">
        <lane id=":262639775_0_0" index="0" disallow="tram rail_urban rail rail_electric rail_fast ship" speed="6.24" length="9.12" shape="3494.74,1064.18 3496.25,1066.16 3498.02,1067.06 3500.04,1066.88 3502.33,1065.62"/>
    </edge>
    <edge id=":262639775_1" function="internal">
        <lane id=":262639775_1_0" index="0" disallow="tram rail_urban rail rail_electric rail_fast ship" speed="6.89" length="9.28" shape="3490.68,1074.15 3492.34,1072.50 3493.13,1070.58 3493.02,1068.38 3492.04,1065.91"/>
    </edge>
    <edge id=":262639775_2" function="internal">
        <lane id=":262639775_2_0" index="0" disallow="tram rail_urban rail rail_electric rail_fast ship" speed="13.89" length="14.47" shape="3490.68,1074.15 3502.33,1065.62"/>
        <lane id=":262639775_2_1" index="1" disallow="tram rail_urban rail rail_electric rail_fast ship" speed="13.89" length="14.47" shape="3492.55,1076.75 3504.25,1068.18"/>
    </edge>
    <edge id=":26310707_0" function="internal">
        <lane id=":26310707_0_0" index="0" disallow="tram rail_urban rail rail_electric rail_fast ship" speed="6.03" length="9.07" shape="1373.80,1071.11 1371.36,1070.25 1369.42,1070.47 1367.98,1071.78 1367.03,1074.19"/>
    </edge>
    <edge id=":26310707_1" function="internal">
        <lane id=":26310707_1_0" index="0" disallow="tram rail_urban rail rail_electric rail_fast ship" speed="8.33" length="15.55" shape="1373.80,1071.11 1360.04,1063.86"/>
    </edge>
    <edge id=":26310707_2" function="internal">
        <lane id=":26310707_2_0" index="0" disallow="tram rail_urban rail rail_electric rail_fast ship" speed="8.33" length="13.13" shape="1369.78,1061.28 1367.03,1074.19"/>
        <lane id=":26310707_2_1" index="1" disallow="tram rail_urban rail rail_electric rail_fast ship" speed="8.33" length="13.13" shape="1366.63,1060.68 1363.92,1073.45"/>
    </edge>
    <edge id=":26310707_4" function="internal">
        <lane id=":26310707_4_0" index="0" disallow="tram rail_urban rail rail_electric rail_fast ship" speed="5.96" length="9.09" shape="1366.63,1060.68 1365.79,1063.15 1364.41,1064.51 1362.49,1064.74 1360.04,1063.86"/>
    </edge>
    <edge id=":263149245_0" function="internal">
        <lane id=":263149245_0_0" index="0" disallow="tram rail_urban rail rail_electric rail_fast ship" speed="6.55" length="8.67" shape="184.48,648.56 184.89,650.90 185.92,652.60 187.58,653.66 189.88,654.08"/>
    </edge>
    <edge id=":263149245_1" function="internal">
        <lane id=":263149245_1_0" index="0" disallow="tram rail_urban rail rail_electric rail_fast ship" speed="13.89" length="10.43" shape="179.33,654.07 189.88,654.08"/>
        <lane id=":263149245_1_1" index="1" disallow="tram rail_urban rail rail_electric rail_fast ship" speed="13.89" length="10.43" shape="179.44,657.27 189.75,657.28"/>
    </edge>
    <edge id=":264626438_0" function="internal">
        <lane id=":264626438_0_0" index="0" disallow="tram rail_urban rail rail_electric rail_fast ship" speed="6.76" length="9.04" shape="698.30,690.86 698.75,693.29 699.85,695.07 701.58,696.20 703.95,696.67"/>
    </edge>
    <edge id=":264626438_1" function="internal">
        <lane id=":264626438_1_0" index="0" disallow="tram rail_urban rail rail_electric rail_fast ship" speed="6.37" length="9.59" shape="689.60,696.98 692.13,696.83 693.89,695.79 694.88,693.85 695.10,691.02"/>
    </edge>
    <edge id=":264626438_2" function="internal">
        <lane id=":264626438_2_0" index="0" disallow="tram rail_urban rail rail_electric rail_fast ship" speed="13.89" length="14.45" shape="689.60,696.98 693.81,697.68 696.63,698.54 699.46,699.34 703.69,699.86"/>
        <lane id=":264626438_2_1" index="1" disallow="tram rail_urban rail rail_electric rail_fast ship" speed="13.89" length="14.45" shape="689.27,700.16 693.50,700.86 696.34,701.73 699.18,702.53 703.42,703.05"/>
    </edge>
    <edge id=":264626884_0" function="internal">
        <lane id=":264626884_0_0" index="0" disallow="tram rail_urban rail rail_electric rail_fast ship" speed="6.46" length="9.03" shape="361.50,786.71 360.98,784.28 359.82,782.61 357.99,781.71 355.51,781.58"/>
    </edge>
    <edge id=":264626884_1" function="internal">
        <lane id=":264626884_1_0" index="0" disallow="tram rail_urban rail rail_electric rail_fast ship" speed="13.89" length="11.27" shape="361.50,786.71 360.76,775.46"/>
    </edge>
    <edge id=":264626884_2" function="internal">
        <lane id=":264626884_2_0" index="0" disallow="tram rail_urban rail rail_electric rail_fast ship" speed="8.33" length="11.27" shape="366.74,780.59 355.51,781.58"/>
    </edge>
    <edge id=":264626884_3" function="internal">
        <lane id=":264626884_3_0" index="0" disallow="tram rail_urban rail rail_electric rail_fast ship" speed="6.46" length="9.03" shape="366.74,780.59 364.27,780.45 362.44,779.55 361.27,777.89 360.76,775.46"/>
    </edge>
    <edge id=":267482959_0" function="internal">
        <lane id=":267482959_0_0" index="0" disallow="tram rail_urban rail rail_electric rail_fast ship" speed="6.24" length="9.05" shape="1152.28,951.94 1149.92,951.05 1147.92,951.19 1146.30,952.35 1145.05,954.55"/>
    </edge>
    <edge id=":267482959_1" function="internal">
        <lane id=":267482959_1_0" index="0" disallow="tram rail_urban rail rail_electric rail_fast ship" speed="8.33" length="11.66" shape="1152.28,951.94 1142.09,946.26"/>
    </edge>
    <edge id=":267482959_2" function="internal">
        <lane id=":267482959_2_0" index="0" disallow="tram rail_urban rail rail_electric rail_fast ship" speed="13.89" length="11.66" shape="1149.31,943.69 1145.05,954.55"/>
    </edge>
    <edge id=":267482959_3" function="internal">
        <lane id=":267482959_3_0" index="0" disallow="tram rail_urban rail rail_electric rail_fast ship" speed="6.22" length="9.05" shape="1149.31,943.69 1148.06,945.89 1146.44,947.06 1144.45,947.18 1142.09,946.26"/>
    </edge>
    <edge id=":274861642_0" function="internal">
        <lane id=":274861642_0_0" index="0" disallow="tram rail_urban rail rail_electric rail_fast ship" speed="13.89" length="8.03" shape="168.22,671.93 165.94,672.20 164.43,672.79 162.92,673.42 160.64,673.82"/>
        <lane id=":274861642_0_1" index="1" disallow="tram rail_urban rail rail_electric rail_fast ship" speed="13.89" length="8.03" shape="168.20,668.73 165.86,669.00 164.31,669.59 162.76,670.22 160.42,670.63"/>
        <lane id=":274861642_0_2" index="2" disallow="tram rail_urban rail rail_electric rail_fast ship" speed="13.89" length="8.03" shape="168.20,668.73 165.81,668.50 164.19,667.99 162.58,667.53 160.20,667.44"/>
    </edge>
    <edge id=":277706883_0" function="internal">
        <lane id=":277706883_0_0" index="0" disallow="tram rail_urban rail rail_electric rail_fast ship" speed="8.33" length="10.67" shape="1256.44,1008.16 1247.00,1003.18"/>
    </edge>
    <edge id=":277706883_1" function="internal">
        <lane id=":277706883_1_0" index="0" disallow="tram rail_urban rail rail_electric rail_fast ship" speed="6.77" length="4.10" shape="1256.44,1008.16 1254.49,1006.76 1253.56,1005.34"/>
    </edge>
    <edge id=":277706883_4" function="internal">
        <lane id=":277706883_4_0" index="0" disallow="tram rail_urban rail rail_electric rail_fast ship" speed="6.77" length="4.79" shape="1253.56,1005.34 1253.37,1005.05 1253.07,1003.02 1253.59,1000.68"/>
    </edge>
    <edge id=":277706883_2" function="internal">
        <lane id=":277706883_2_0" index="0" disallow="tram rail_urban rail rail_electric rail_fast ship" speed="6.77" length="8.90" shape="1249.85,1010.67 1250.37,1008.33 1250.07,1006.30 1248.95,1004.59 1247.00,1003.18"/>
    </edge>
    <edge id=":277706883_3" function="internal">
        <lane id=":277706883_3_0" index="0" disallow="tram rail_urban rail rail_electric rail_fast ship" speed="8.33" length="10.67" shape="1249.85,1010.67 1253.59,1000.68"/>
    </edge>
    <edge id=":290897136_0" function="internal">