<configuration>
    <input>
        <net-file value="rebreanu_final_clean_all_cycles.net.xml"/>
        <additional-files value="rebreanu_shapes.poly.xml"/>
        <route-files value="rebreanu_moderat.rou.xml"/>
    </input>
    <time>
        <begin value="0"/>
        <end value="3600"/>
    </time>
</configuration>